Version 4
SHEET 1 1052 1336
WIRE -368 0 -480 0
WIRE -368 32 -448 32
WIRE -224 32 -304 32
WIRE -176 32 -224 32
WIRE -480 96 -480 0
WIRE -480 96 -496 96
WIRE -416 96 -480 96
WIRE -560 112 -624 112
WIRE -448 128 -448 32
WIRE -448 128 -496 128
WIRE -416 128 -448 128
WIRE -368 208 -480 208
WIRE 64 208 -48 208
WIRE 80 208 64 208
WIRE -368 240 -448 240
WIRE -224 240 -304 240
WIRE -176 240 -224 240
WIRE -48 240 -48 208
WIRE -480 288 -480 208
WIRE -480 288 -496 288
WIRE -416 288 -480 288
WIRE -624 304 -624 112
WIRE -560 304 -624 304
WIRE -448 320 -448 240
WIRE -448 320 -496 320
WIRE -416 320 -448 320
WIRE -48 352 -48 320
WIRE 64 432 -48 432
WIRE 80 432 64 432
WIRE -48 464 -48 432
WIRE -624 528 -624 304
WIRE -48 576 -48 544
WIRE -624 640 -624 608
WIRE 64 704 -48 704
WIRE 80 704 64 704
WIRE 464 704 352 704
WIRE 480 704 464 704
WIRE -48 736 -48 704
WIRE 352 736 352 704
WIRE -48 848 -48 816
WIRE 352 848 352 816
FLAG -624 640 0
FLAG -416 96 PO
FLAG -416 128 NO
FLAG -624 112 I
FLAG -48 576 0
FLAG -48 352 0
FLAG 64 208 T
FLAG 64 432 C
FLAG 352 848 0
FLAG 464 704 idtbuf
FLAG -48 848 0
FLAG 64 704 idtinv
FLAG -224 32 DT1
FLAG -416 288 PO2
FLAG -416 320 NO2
FLAG -224 240 DT2
SYMBOL ZZZ\\LTspiceControlLibrary\\PulseModulations\\ComplementaryBufferWithDeadtime -560 48 R0
SYMATTR InstName U1
SYMBOL voltage -624 512 R0
WINDOW 123 0 0 Left 0
WINDOW 39 0 0 Left 0
SYMATTR InstName V1
SYMATTR Value PULSE(0 1 0 1n 1n 2u 6u)
SYMBOL bi -48 320 R180
WINDOW 0 -33 70 Right 2
WINDOW 3 -36 0 Right 2
SYMATTR InstName B1
SYMATTR Value I=idt(1,0,inv(V(I)))>={Tdead}  tripdt={Tdead} Rpar=1 Cpar=10n
SYMBOL bi -48 544 R180
WINDOW 0 -33 70 Right 2
WINDOW 3 -36 0 Right 2
SYMATTR InstName B2
SYMATTR Value I=idt(1,0,buf(V(I)))>={Tdead}  tripdt={Tdead} Rpar=1 Cpar=10n
SYMBOL bv 352 720 R0
SYMATTR InstName B3
SYMATTR Value V=idt(1,0, buf(V(I))>=Tdead)
SYMBOL bv -48 720 R0
SYMATTR InstName B4
SYMATTR Value V=idt(1,0, inv(V(I))>=Tdead)
SYMBOL Digital\\or -336 -48 R0
SYMATTR InstName A1
SYMBOL ZZZ\\LTspiceControlLibrary\\PulseModulations\\ComplementaryBufferWithDeadtime -560 240 R0
SYMATTR InstName U2
SYMATTR Value Tdead=1.5u
SYMBOL Digital\\or -336 160 R0
SYMATTR InstName A2
TEXT -600 640 Left 2 !.tran 20u
TEXT -672 -184 Left 4 ;Complementary Buffer with Deadtime from the LTspice Control Library\n1u between positvive going pulses\non either output
TEXT -88 136 Left 2 !.param Tdead=1u
TEXT -88 160 Left 2 !.param Va=5
TEXT 104 584 Left 2 ;buf(V(I))     1 if V(I) > .5, else 0
TEXT 96 352 Left 2 ;inv(V(I))      0 if V(I) > .5, else 1.
TEXT -48 640 Left 2 ;idt(x[,ic[,a]])    Integrate x, optional initial condition ic, reset if a is true.
TEXT -656 712 Left 2 ;The idt(,,) function is in reset with output zero\nas long as the condition is true. The integral\ngains 1uV per usec as long as the condition\nremains false.
TEXT -656 840 Left 2 ;A complementary signal can only go high\nafter an integration ramp reaches the\nTdead threshold.
TEXT -544 392 Left 2 ;Be careful the deadtime does not\nmake the output zero all the time.
TEXT -88 -16 Left 2 ;.subckt ComplementaryBufferWithDeadtime I P N Va=1V Tdead=1u\nB1 0 P i={Va}*(idt(1,0,inv(V(I)))>={Tdead}) tripdt={tripdt} Rpar=1 Cpar=10n\nB2 0 N i={Va}*(idt(1,0,buf(V(I)))>={Tdead}) tripdt={tripdt} Rpar=1 Cpar=10n\n.param  tripdt={Tdead}\n.ends ComplementaryBufferWithDeadtime
