Version 4
SHEET 1 1004 1204
WIRE -928 -112 -960 -112
WIRE -816 -112 -928 -112
WIRE -624 -112 -736 -112
WIRE -320 -112 -528 -112
WIRE -128 -112 -320 -112
WIRE 0 -112 -128 -112
WIRE -528 -48 -528 -112
WIRE -320 -48 -320 -112
WIRE -960 16 -960 -112
WIRE -624 16 -624 -112
WIRE -576 16 -624 16
WIRE -368 48 -624 48
WIRE 0 48 0 -112
WIRE -576 64 -576 16
WIRE -368 64 -368 48
WIRE -128 64 -128 -112
WIRE -528 144 -528 16
WIRE -320 144 -320 16
WIRE -576 240 -576 224
WIRE -528 240 -528 224
WIRE -528 240 -576 240
WIRE -368 240 -368 224
WIRE -320 240 -320 224
WIRE -320 240 -368 240
WIRE -528 288 -528 240
WIRE -320 288 -320 240
WIRE -320 288 -528 288
WIRE -128 288 -128 128
WIRE -128 288 -320 288
WIRE 0 288 0 128
WIRE 0 288 -128 288
WIRE -960 304 -960 96
WIRE -928 304 -960 304
WIRE -624 304 -624 48
WIRE -624 304 -928 304
WIRE -528 304 -528 288
WIRE -608 400 -624 400
WIRE -576 400 -608 400
WIRE -496 416 -512 416
WIRE -576 432 -592 432
WIRE -848 464 -864 464
WIRE -832 464 -848 464
WIRE -752 464 -768 464
WIRE -544 464 -752 464
WIRE -608 496 -608 400
WIRE -576 496 -608 496
WIRE -496 512 -512 512
WIRE -592 528 -592 432
WIRE -576 528 -592 528
WIRE -752 560 -752 464
WIRE -736 560 -752 560
WIRE -544 560 -672 560
WIRE -592 624 -592 528
WIRE -592 624 -768 624
WIRE -384 720 -384 704
WIRE -928 752 -960 752
WIRE -912 752 -928 752
WIRE -832 752 -848 752
WIRE -720 752 -768 752
WIRE -640 752 -720 752
WIRE -608 752 -640 752
WIRE -512 752 -544 752
WIRE -416 752 -512 752
WIRE -336 752 -352 752
WIRE -304 752 -336 752
WIRE -224 752 -240 752
WIRE -144 752 -160 752
WIRE -64 752 -144 752
WIRE -32 752 -64 752
WIRE 48 752 32 752
WIRE 176 752 160 752
WIRE -720 800 -720 752
WIRE -640 800 -656 800
WIRE -576 800 -576 784
WIRE -576 800 -640 800
WIRE -144 800 -144 752
WIRE -64 800 -80 800
WIRE 0 800 0 784
WIRE 0 800 -64 800
WIRE -512 816 -528 816
WIRE -416 816 -432 816
WIRE -400 816 -416 816
WIRE -272 816 -272 784
WIRE -272 816 -304 816
WIRE -960 880 -960 752
WIRE -528 880 -528 816
FLAG -528 304 0
FLAG -928 -112 AC_L
FLAG 0 -112 DC_P
FLAG -928 304 AC_N
FLAG -928 464 AC_L
FLAG -896 496 AC_N
FLAG -800 496 0
FLAG -496 512 mx*
FLAG -496 416 my*
FLAG -960 960 0
FLAG -880 784 DC_P
FLAG -928 752 v*
FLAG -640 752 ia*_p
FLAG -640 800 ia*_i
FLAG -512 752 ia*
FLAG -848 464 vac
FLAG -464 704 vac
FLAG -528 960 0
FLAG -64 752 m*_p
FLAG -64 800 m*_i
FLAG 176 752 m*
FLAG -416 816 il
FLAG -336 752 il*
FLAG -768 624 m*
FLAG -688 400 0
FLAG -480 208 0
FLAG -272 208 0
FLAG -480 160 mx*
FLAG -272 160 my*
SYMBOL voltage -960 0 R0
WINDOW 123 0 0 Left 2
WINDOW 39 0 0 Left 2
SYMATTR InstName V1
SYMATTR Value SINE(0 {100*sqrt(2)} 50)
SYMBOL diode -544 16 M180
WINDOW 0 24 64 Left 2
WINDOW 3 24 0 Left 2
SYMATTR InstName D1
SYMBOL res -16 32 R0
SYMATTR InstName R1
SYMATTR Value 100
SYMBOL diode -336 16 M180
WINDOW 0 24 64 Left 2
WINDOW 3 24 0 Left 2
SYMATTR InstName D3
SYMBOL cap -144 64 R0
SYMATTR InstName C1
SYMATTR Value 500u
SYMBOL ind -832 -96 R270
WINDOW 0 32 56 VTop 2
WINDOW 3 5 56 VBottom 2
SYMATTR InstName L1
SYMATTR Value 1m
SYMBOL sub -912 496 R0
SYMATTR InstName U2
SYMBOL nle -816 496 R0
SYMATTR InstName U3
SYMBOL voltage -960 864 R0
SYMATTR InstName V3
SYMATTR Value 200
SYMBOL sub -896 784 R0
SYMATTR InstName U8
SYMBOL Proportional -816 784 R0
SYMATTR Value K=0.2m
SYMATTR InstName U9
SYMBOL Integral -704 832 R0
SYMATTR Value T=20m
SYMATTR InstName U10
SYMBOL add -592 784 R0
SYMATTR InstName U11
SYMBOL mul -400 720 M180
SYMATTR InstName U15
SYMBOL abs -448 736 R0
SYMATTR InstName U16
SYMBOL bv -528 864 R0
SYMATTR InstName B1
SYMATTR Value V=I(L1)
SYMBOL sub -288 784 R0
SYMATTR InstName U12
SYMBOL 1stOrderLag -384 848 R0
SYMATTR Value K=1 T=30u
SYMATTR InstName U17
SYMBOL Proportional -208 784 R0
SYMATTR InstName U18
SYMBOL Integral -128 832 R0
SYMATTR Value T=0.1m
SYMATTR InstName U19
SYMBOL add -16 784 R0
SYMATTR InstName U20
SYMBOL abs -496 848 R0
SYMATTR InstName U22
SYMBOL LTspiceControlLibrary\\Math\\Operands\\inv -720 592 R0
SYMATTR InstName U7
SYMBOL LTspiceControlLibrary\\Math\\Functions\\limit 64 784 R0
SYMATTR Value y=0 z=1
SYMATTR InstName U13
SYMBOL LTspiceControlLibrary\\Math\\Functions\\if -560 560 R0
SYMATTR InstName U1
SYMBOL LTspiceControlLibrary\\Math\\Functions\\if -560 464 R0
SYMATTR InstName U4
SYMBOL LTspiceControlLibrary\\Math\\Operands\\inc -672 432 R0
SYMATTR InstName U5
SYMBOL res -592 48 R0
SYMATTR InstName Rs1
SYMATTR Value 1m
SYMBOL res -384 48 R0
SYMATTR InstName Rs2
SYMATTR Value 1m
SYMBOL LTspiceControlLibrary\\Sources\\DCTransformer -528 128 M0
WINDOW 0 -24 15 Right 2
WINDOW 3 -25 97 Right 2
SYMATTR InstName U6
SYMATTR Value Vc1=1 Vc2=0
SYMBOL LTspiceControlLibrary\\Sources\\DCTransformer -320 128 M0
WINDOW 0 -24 15 Right 2
WINDOW 3 -25 97 Right 2
SYMATTR InstName U14
SYMATTR Value Vc1=1 Vc2=0
TEXT -968 -312 Left 2 !.tran 0 500m 0 startup
TEXT -968 -280 Left 2 !.model SW SW(Ron=1 Roff=1Meg Vt=0.5)\n.model D D(Ron=.1 Roff=1Meg Vfwd=.4)
TEXT -984 416 Left 2 ;synchronous rectification
TEXT -984 584 Left 2 ;power factor correction
TEXT -968 -224 Left 2 !.ic V(DC_P)=140V
TEXT -960 664 Left 2 ;voltage controller
TEXT -544 664 Left 2 ;current controller
TEXT -1040 360 Left 4 ;Controller
TEXT -1032 -184 Left 4 ;Circuit
TEXT -1032 -360 Left 4 ;Config
TEXT -1096 -456 Left 5 ;CCM-BridgelessPFC
TEXT -1048 -408 Left 2 ;Continuous Conduction Mode Bridgeless Power Factor Correction
TEXT -480 -328 Left 2 ;NOTE\nSwitching elements are approximated\nby imaginary variable dc transformers.\nThis reduces transient analysis time and\nallows ac analysis.\nDiscontinuous conduction mode and\nnonconduction mode are NOT considered.
