Version 4
SHEET 1 1004 1204
WIRE -928 -112 -960 -112
WIRE -816 -112 -928 -112
WIRE -624 -112 -736 -112
WIRE -320 -112 -528 -112
WIRE -128 -112 -320 -112
WIRE 0 -112 -128 -112
WIRE -528 -48 -528 -112
WIRE -320 -48 -320 -112
WIRE -960 16 -960 -112
WIRE 0 48 0 -112
WIRE -624 64 -624 -112
WIRE -528 64 -528 16
WIRE -528 64 -624 64
WIRE -128 64 -128 -112
WIRE -320 96 -320 16
WIRE -320 96 -624 96
WIRE -528 128 -528 64
WIRE -448 128 -528 128
WIRE -320 128 -320 96
WIRE -240 128 -320 128
WIRE -528 144 -528 128
WIRE -448 144 -448 128
WIRE -320 144 -320 128
WIRE -240 144 -240 128
WIRE -528 240 -528 224
WIRE -448 240 -448 208
WIRE -448 240 -528 240
WIRE -320 240 -320 224
WIRE -240 240 -240 208
WIRE -240 240 -320 240
WIRE -528 288 -528 240
WIRE -320 288 -320 240
WIRE -320 288 -528 288
WIRE -128 288 -128 128
WIRE -128 288 -320 288
WIRE 0 288 0 128
WIRE 0 288 -128 288
WIRE -960 304 -960 96
WIRE -928 304 -960 304
WIRE -624 304 -624 96
WIRE -624 304 -928 304
WIRE -528 304 -528 288
WIRE -848 464 -864 464
WIRE -832 464 -848 464
WIRE -752 464 -768 464
WIRE -656 464 -752 464
WIRE -544 464 -656 464
WIRE -400 464 -480 464
WIRE -752 528 -752 464
WIRE -736 528 -752 528
WIRE -608 528 -672 528
WIRE -592 528 -608 528
WIRE -400 528 -528 528
WIRE -656 576 -656 464
WIRE -688 608 -704 608
WIRE -560 608 -560 560
WIRE -560 608 -624 608
WIRE -608 640 -608 528
WIRE -704 672 -704 608
WIRE -704 672 -768 672
WIRE -640 672 -704 672
WIRE -512 672 -512 496
WIRE -512 672 -576 672
WIRE -304 784 -304 768
WIRE -928 816 -960 816
WIRE -880 816 -928 816
WIRE -800 816 -816 816
WIRE -752 816 -800 816
WIRE -720 816 -752 816
WIRE -624 816 -656 816
WIRE -592 816 -624 816
WIRE -432 816 -528 816
WIRE -336 816 -432 816
WIRE -256 816 -272 816
WIRE -224 816 -256 816
WIRE -144 816 -160 816
WIRE -128 816 -144 816
WIRE -96 816 -128 816
WIRE 0 816 -32 816
WIRE 32 816 0 816
WIRE 144 816 96 816
WIRE 192 816 144 816
WIRE -416 880 -448 880
WIRE -400 880 -416 880
WIRE -288 880 -304 880
WIRE -192 880 -192 848
WIRE -192 880 -208 880
WIRE -752 896 -752 816
WIRE -720 896 -752 896
WIRE -624 896 -656 896
WIRE -560 896 -560 848
WIRE -560 896 -624 896
WIRE -128 896 -128 816
WIRE -96 896 -128 896
WIRE 0 896 -32 896
WIRE 64 896 64 848
WIRE 64 896 0 896
WIRE -960 944 -960 816
WIRE -448 944 -448 880
WIRE 224 944 224 848
FLAG -528 304 0
FLAG -928 -112 AC_L
FLAG 0 -112 DC_P
FLAG -576 208 0
FLAG -368 208 0
FLAG -928 304 AC_N
FLAG -928 464 AC_L
FLAG -896 496 AC_N
FLAG -800 496 0
FLAG -576 160 X
FLAG -368 160 Y
FLAG -400 528 X
FLAG -400 464 Y
FLAG -960 1024 0
FLAG -848 848 DC_P
FLAG 224 1024 0
FLAG 256 816 PWM
FLAG -768 672 PWM
FLAG -928 816 VREF
FLAG -800 816 VERR
FLAG -624 816 IAREFP
FLAG -624 896 IAREFI
FLAG -432 816 IAREF
FLAG -848 464 AC
FLAG -384 768 AC
FLAG -448 1024 0
FLAG 0 816 MREFP
FLAG 0 896 MREFI
FLAG 144 816 MREF
FLAG -144 816 IERR
FLAG -416 880 IL
FLAG -256 816 IREF
SYMBOL voltage -960 0 R0
WINDOW 123 0 0 Left 2
WINDOW 39 0 0 Left 2
SYMATTR InstName V1
SYMATTR Value SINE(0 {100*sqrt(2)} 50)
SYMBOL diode -544 16 M180
WINDOW 0 24 64 Left 2
WINDOW 3 24 0 Left 2
SYMATTR InstName D1
SYMBOL res -16 32 R0
SYMATTR InstName R1
SYMATTR Value 100
SYMBOL diode -464 208 M180
WINDOW 0 24 64 Left 2
WINDOW 3 24 0 Left 2
SYMATTR InstName D2
SYMBOL diode -336 16 M180
WINDOW 0 24 64 Left 2
WINDOW 3 24 0 Left 2
SYMATTR InstName D3
SYMBOL diode -256 208 M180
WINDOW 0 24 64 Left 2
WINDOW 3 24 0 Left 2
SYMATTR InstName D4
SYMBOL cap -144 64 R0
SYMATTR InstName C1
SYMATTR Value 500u
SYMBOL sw -528 240 M180
SYMATTR InstName S1
SYMBOL sw -320 240 M180
SYMATTR InstName S2
SYMBOL ind -832 -96 R270
WINDOW 0 32 56 VTop 2
WINDOW 3 5 56 VBottom 2
SYMATTR InstName L1
SYMATTR Value 1m
SYMBOL sub -912 496 R0
SYMATTR InstName U2
SYMBOL nle -816 496 R0
SYMATTR InstName U3
SYMBOL voltage -960 928 R0
SYMATTR InstName V3
SYMATTR Value 200
SYMBOL sub -864 848 R0
SYMATTR InstName U8
SYMBOL Proportional -704 848 R0
SYMATTR Value K=0.2m
SYMATTR InstName U9
SYMBOL Integral -704 928 R0
SYMATTR Value T=100
SYMATTR InstName U10
SYMBOL add -576 848 R0
SYMATTR InstName U11
SYMBOL nle 208 848 R0
SYMATTR InstName U13
SYMBOL mul -320 784 M180
SYMATTR InstName U15
SYMBOL abs -368 800 R0
SYMATTR InstName U16
SYMBOL bv -448 928 R0
SYMATTR InstName B1
SYMATTR Value V=I(L1)
SYMBOL sub -208 848 R0
SYMATTR InstName U12
SYMBOL 1stOrderLag -384 912 R0
SYMATTR Value K=1 T=0.1m
SYMATTR InstName U17
SYMBOL Proportional -80 848 R0
SYMATTR InstName U18
SYMBOL Integral -80 928 R0
SYMATTR Value T=1m
SYMATTR InstName U19
SYMBOL add 48 848 R0
SYMATTR InstName U20
SYMBOL abs -272 912 R0
SYMATTR InstName U22
SYMBOL LTspiceControlLibrary\\Math\\Operands\\or -528 496 R0
SYMATTR InstName U1
SYMBOL LTspiceControlLibrary\\Math\\Operands\\or -576 560 R0
SYMATTR InstName U4
SYMBOL LTspiceControlLibrary\\Math\\Operands\\and -672 576 M180
SYMATTR InstName U5
SYMBOL LTspiceControlLibrary\\Math\\Operands\\and -624 640 M180
SYMATTR InstName U6
SYMBOL LTspiceControlLibrary\\Math\\Operands\\inv -720 560 R0
SYMATTR InstName U7
SYMBOL TriangleWaveVoltage 224 928 R0
SYMATTR InstName U14
SYMATTR Value V1=0 V2=1 Tperiod={1/30k} tratio=1
TEXT -968 -312 Left 2 !.tran 0 500m 0 startup
TEXT -968 -280 Left 2 !.model SW SW(Ron=1 Roff=1Meg Vt=0.5)\n.model D D(Ron=.1 Roff=1Meg Vfwd=.4)
TEXT -984 416 Left 2 ;synchronous rectification
TEXT -984 632 Left 2 ;power factor correction
TEXT -968 -224 Left 2 !.ic V(DC_P)=140V
TEXT -960 728 Left 2 ;voltage controller
TEXT -464 728 Left 2 ;current controller
TEXT 192 728 Left 2 ;PWM
TEXT -1040 360 Left 4 ;Controller
TEXT -1032 -184 Left 4 ;Circuit
TEXT -1032 -360 Left 4 ;Config
TEXT -1096 -456 Left 5 ;CCM-BridgelessPFC
TEXT -1048 -408 Left 2 ;Continuous Conduction Mode Bridgeless Power Factor Correction
