Version 4
SHEET 1 1004 1204
WIRE -912 -64 -960 -64
WIRE -624 -64 -912 -64
WIRE -496 -64 -544 -64
WIRE -448 -64 -496 -64
WIRE -352 -64 -448 -64
WIRE -288 -64 -352 -64
WIRE -144 -64 -208 -64
WIRE -48 -64 -144 -64
WIRE 80 -64 16 -64
WIRE 192 -64 80 -64
WIRE -544 -32 -544 -64
WIRE -448 -32 -448 -64
WIRE 192 48 192 -64
WIRE -960 64 -960 -64
WIRE 80 64 80 -64
WIRE -624 80 -624 -64
WIRE -544 80 -544 32
WIRE -544 80 -624 80
WIRE -352 80 -352 -64
WIRE -144 96 -144 -64
WIRE -448 128 -448 32
WIRE -448 128 -624 128
WIRE -544 160 -544 80
WIRE -448 160 -448 128
WIRE -960 288 -960 144
WIRE -912 288 -960 288
WIRE -624 288 -624 128
WIRE -624 288 -912 288
WIRE -544 288 -544 224
WIRE -448 288 -448 224
WIRE -448 288 -544 288
WIRE -352 288 -352 144
WIRE -352 288 -448 288
WIRE -144 288 -144 176
WIRE -144 288 -352 288
WIRE 80 288 80 128
WIRE 80 288 -144 288
WIRE 192 288 192 128
WIRE 192 288 80 288
WIRE -544 304 -544 288
WIRE -432 464 -464 464
WIRE -432 496 -432 464
WIRE -928 528 -960 528
WIRE -912 528 -928 528
WIRE -832 528 -848 528
WIRE -720 528 -768 528
WIRE -640 528 -720 528
WIRE -608 528 -640 528
WIRE -512 528 -544 528
WIRE -464 528 -512 528
WIRE -384 528 -400 528
WIRE -352 528 -384 528
WIRE -272 528 -288 528
WIRE -192 528 -208 528
WIRE -112 528 -192 528
WIRE -80 528 -112 528
WIRE 0 528 -16 528
WIRE 16 528 0 528
WIRE -720 576 -720 528
WIRE -640 576 -656 576
WIRE -576 576 -576 560
WIRE -576 576 -640 576
WIRE -192 576 -192 528
WIRE -112 576 -128 576
WIRE -48 576 -48 560
WIRE -48 576 -112 576
WIRE -448 592 -480 592
WIRE -432 592 -448 592
WIRE -320 592 -320 560
WIRE -320 592 -336 592
WIRE -960 656 -960 528
WIRE -480 656 -480 592
WIRE 48 656 48 560
FLAG -544 304 0
FLAG -912 -64 AC_L
FLAG 192 -64 DC_P
FLAG -192 160 0
FLAG -912 288 AC_N
FLAG -192 112 X
FLAG -960 736 0
FLAG -880 560 DC_P
FLAG 48 736 0
FLAG 80 528 X
FLAG -928 528 v*
FLAG -640 528 ia*_p
FLAG -640 576 ia*_i
FLAG -512 528 ia*
FLAG -464 464 DC_AC
FLAG -480 736 0
FLAG -112 528 m*_p
FLAG -112 576 m*_i
FLAG 0 528 m*
FLAG -448 592 il
FLAG -384 528 il*
FLAG -496 -64 DC_AC
SYMBOL voltage -960 48 R0
WINDOW 123 0 0 Left 2
WINDOW 39 0 0 Left 2
SYMATTR InstName V1
SYMATTR Value SINE(0 {100*sqrt(2)} 50)
SYMBOL diode -560 32 M180
WINDOW 0 24 64 Left 2
WINDOW 3 24 0 Left 2
SYMATTR InstName D2
SYMBOL res 176 32 R0
SYMATTR InstName R1
SYMATTR Value 100
SYMBOL diode -560 224 M180
WINDOW 0 24 64 Left 2
WINDOW 3 24 0 Left 2
SYMATTR InstName D3
SYMBOL diode -464 32 M180
WINDOW 0 24 64 Left 2
WINDOW 3 24 0 Left 2
SYMATTR InstName D4
SYMBOL diode -464 224 M180
WINDOW 0 24 64 Left 2
WINDOW 3 24 0 Left 2
SYMATTR InstName D5
SYMBOL cap 64 64 R0
SYMATTR InstName C1
SYMATTR Value 500u
SYMBOL sw -144 192 M180
SYMATTR InstName S1
SYMBOL ind -304 -48 R270
WINDOW 0 32 56 VTop 2
WINDOW 3 5 56 VBottom 2
SYMATTR InstName L1
SYMATTR Value 1m
SYMBOL voltage -960 640 R0
WINDOW 123 0 0 Left 2
WINDOW 39 0 0 Left 2
SYMATTR InstName V3
SYMATTR Value 200
SYMBOL sub -896 560 R0
SYMATTR InstName U8
SYMBOL Proportional -816 560 R0
SYMATTR Value K=0.2m
SYMATTR InstName U9
SYMBOL Integral -704 608 R0
SYMATTR Value T=20m
SYMATTR InstName U10
SYMBOL add -592 560 R0
SYMATTR InstName U11
SYMBOL nle 32 560 R0
SYMATTR InstName U13
SYMBOL mul -448 496 M180
SYMATTR InstName U15
SYMBOL bv -480 640 R0
SYMATTR InstName B1
SYMATTR Value V=I(L1)
SYMBOL sub -336 560 R0
SYMATTR InstName U12
SYMBOL 1stOrderLag -416 624 R0
SYMATTR Value K=1 T=30u
SYMATTR InstName U17
SYMBOL Proportional -256 560 R0
SYMATTR InstName U18
SYMBOL Integral -176 608 R0
SYMATTR Value T=0.1m
SYMATTR InstName U19
SYMBOL add -64 560 R0
SYMATTR InstName U20
SYMBOL diode -48 -48 R270
WINDOW 0 32 32 VTop 2
WINDOW 3 0 32 VBottom 2
SYMATTR InstName D1
SYMBOL cap -368 80 R0
SYMATTR InstName C3
SYMATTR Value 0.1u
SYMBOL TriangleWaveVoltage 48 640 R0
SYMATTR InstName U1
SYMATTR Value V1=0 V2=1 Tperiod={1/30k} tratio=1
TEXT -968 -312 Left 2 !.tran 0 500m 0 startup
TEXT -968 -280 Left 2 !.model SW SW(Ron=1 Roff=1Meg Vt=0.5)\n.model D D(Ron=.1 Roff=1Meg Vfwd=.4)
TEXT -1016 384 Left 4 ;Controller
TEXT -1024 -184 Left 4 ;Circuit
TEXT -968 -224 Left 2 !.ic V(DC_P)=140
TEXT -976 440 Left 2 ;voltage controller
TEXT -544 440 Left 2 ;current controller
TEXT 16 440 Left 2 ;PWM
TEXT -1024 -352 Left 4 ;Config
TEXT -1048 -472 Left 5 ;CCM-PFC
TEXT -1000 -424 Left 2 ;Continuous Conduction Mode Power Factor Correction
