Version 4
SHEET 1 2828 688
WIRE 480 -400 384 -400
WIRE 1328 -400 1312 -400
WIRE 480 -384 480 -400
WIRE 1312 -384 1312 -400
WIRE 400 -336 384 -336
WIRE 592 -336 560 -336
WIRE 400 -288 384 -288
WIRE 592 -288 576 -288
WIRE 1328 -256 1312 -256
WIRE 1312 -240 1312 -256
WIRE 480 -224 480 -240
WIRE 480 -224 384 -224
WIRE 1328 -112 1312 -112
WIRE 1312 -96 1312 -112
WIRE 976 -80 608 -80
WIRE 624 -48 384 -48
WIRE 896 -32 896 -48
WIRE 976 -32 976 -80
WIRE 976 -32 960 -32
WIRE 992 -32 976 -32
WIRE 1104 -32 992 -32
WIRE 608 -16 608 -80
WIRE 624 -16 608 -16
WIRE 992 0 992 -32
WIRE 1104 0 1056 0
WIRE 416 32 384 32
WIRE 608 32 576 32
WIRE 736 32 736 16
WIRE 1424 32 1376 32
WIRE 448 80 448 64
WIRE 448 80 432 80
WIRE 928 80 928 16
WIRE 928 80 448 80
WIRE 1424 80 1376 80
WIRE 640 112 640 64
WIRE 640 112 624 112
WIRE 560 144 560 112
WIRE 560 144 384 144
WIRE 672 144 560 144
WIRE 720 144 672 144
WIRE 800 144 800 0
WIRE 800 144 784 144
WIRE 704 176 704 64
WIRE 752 176 704 176
WIRE 560 208 384 208
WIRE 704 208 704 176
WIRE 704 208 624 208
WIRE 720 208 704 208
WIRE 864 208 864 0
WIRE 864 208 784 208
WIRE 672 240 672 144
WIRE 752 240 672 240
WIRE 896 240 896 -16
WIRE 896 240 880 240
WIRE 448 256 432 256
WIRE 544 256 528 256
WIRE 432 272 432 256
WIRE 528 272 528 256
FLAG 1312 -304 0
FLAG 1312 -400 CLK
FLAG 1312 -256 PRE
FLAG 1312 -112 CLR
FLAG 1312 -16 0
FLAG 1312 -160 0
FLAG 384 -400 PRE
FLAG 384 -224 CLR
FLAG 384 -288 CLK
FLAG 592 -336 Q_a
FLAG 384 -336 D_a
FLAG 592 -288 Qbar_a
FLAG 1104 -32 Q_b
FLAG 1104 0 Qbar_b
FLAG 384 144 PRE
FLAG 384 208 CLR
FLAG 384 32 CLK
FLAG 384 -48 D_b
FLAG 528 352 0
FLAG 528 256 start
FLAG 432 80 start
FLAG 432 256 ic
FLAG 432 352 0
FLAG 800 240 ic
FLAG 1376 32 Qbar_a
FLAG 1424 32 D_a
FLAG 1376 80 Qbar_b
FLAG 1424 80 D_b
SYMBOL voltage 1312 -400 R0
WINDOW 123 0 0 Left 2
WINDOW 39 0 0 Left 2
SYMATTR InstName V1
SYMATTR Value PULSE(0 1 0 1n 1n 0.5u 1u)
SYMBOL Digital\\dflop 480 -384 R0
WINDOW 3 34 13 Left 2
SYMATTR Value ic={ic}
SYMATTR InstName A1
SYMBOL voltage 1312 -256 R0
WINDOW 123 0 0 Left 2
WINDOW 39 0 0 Left 2
SYMATTR InstName V2
SYMATTR Value PULSE(0 1 9.5u 1n 1n 2u 0 1)
SYMBOL voltage 1312 -112 R0
WINDOW 123 0 0 Left 2
WINDOW 39 0 0 Left 2
SYMATTR InstName V3
SYMATTR Value PULSE(0 1 19.5u 1n 1n 2u 0 1)
SYMBOL LTspiceControlLibrary\\Math\\Operands\\and 848 0 R0
SYMATTR InstName U1
SYMBOL LTspiceControlLibrary\\Math\\Operands\\or 784 0 R0
SYMATTR InstName U2
SYMBOL LTspiceControlLibrary\\Math\\Operands\\inv 576 240 R0
SYMATTR InstName U3
SYMBOL LTspiceControlLibrary\\Discrete\\Previous 640 16 R0
SYMATTR InstName U4
SYMBOL LTspiceControlLibrary\\Math\\Operands\\inv 1008 32 R0
SYMATTR InstName U6
SYMBOL LTspiceControlLibrary\\Discrete\\Edge 496 64 R0
SYMATTR InstName U8
SYMBOL LTspiceControlLibrary\\Math\\Functions\\if 720 16 R0
SYMATTR InstName U9
SYMBOL LTspiceControlLibrary\\Discrete\\Previous 640 -16 R0
SYMATTR InstName U10
SYMBOL bv 528 256 R0
SYMATTR InstName B1
SYMATTR Value V=(time>0)
SYMBOL LTspiceControlLibrary\\Math\\Operands\\and 432 64 R0
SYMATTR InstName U7
SYMBOL LTspiceControlLibrary\\Math\\Functions\\if 912 16 R0
SYMATTR InstName U5
SYMBOL voltage 432 256 R0
SYMATTR InstName V4
SYMATTR Value {ic}
SYMBOL LTspiceControlLibrary\\Math\\Functions\\buf 816 272 R0
SYMATTR InstName U11
SYMBOL LTspiceControlLibrary\\Math\\Operands\\and 688 64 R0
SYMATTR InstName U12
SYMBOL LTspiceControlLibrary\\Math\\Operands\\and 624 64 R0
SYMATTR InstName U13
SYMBOL LTspiceControlLibrary\\Math\\Operands\\inv 576 144 R0
SYMATTR InstName U14
SYMBOL LTspiceControlLibrary\\Math\\Operands\\and 736 176 R0
SYMATTR InstName U15
SYMBOL LTspiceControlLibrary\\Math\\Operands\\or 736 240 R0
SYMATTR InstName U16
TEXT 312 -512 Left 2 !.tran 25u
TEXT 272 -616 Left 5 ;A - DFLOP
TEXT 304 -552 Left 4 ;Config
TEXT 304 -456 Left 4 ;Reference Element
TEXT 304 -136 Left 4 ;Estimated Block Diagram
TEXT 672 272 Left 2 ;NOTE\n  Output impedance is not considerd.\n  Parameter Vhigh, Vlow, Trise, Tfall, Tau, Cout, Rout,\n  Rhigh, Rlow, Td, ref and tripdt are not considerd.
TEXT 1256 -456 Left 4 ;Input
TEXT 552 -512 Left 2 !.param ic=0
