Version 4
SHEET 1 2828 680
WIRE 1168 -352 1152 -352
WIRE 1152 -336 1152 -352
WIRE 512 -304 496 -304
WIRE 512 -272 496 -272
WIRE 704 -256 688 -256
WIRE 512 -208 496 -208
WIRE 1168 -208 1152 -208
WIRE 1152 -192 1152 -208
WIRE 944 -64 592 -64
WIRE 1168 -64 1152 -64
WIRE 1152 -48 1152 -64
WIRE 688 -32 560 -32
WIRE 752 -16 752 -32
WIRE 944 -16 944 -64
WIRE 944 -16 928 -16
WIRE 960 -16 944 -16
WIRE 528 0 496 0
WIRE 592 0 592 -64
WIRE 608 0 592 0
WIRE 720 48 720 32
WIRE 720 48 496 48
WIRE 752 64 752 0
WIRE 752 64 736 64
WIRE 784 96 784 32
WIRE 784 96 768 96
WIRE 496 144 480 144
WIRE 608 144 592 144
WIRE 480 160 480 144
WIRE 592 160 592 144
FLAG 1152 -256 0
FLAG 1152 -352 S/H
FLAG 1152 -112 0
FLAG 1152 -208 in+
FLAG 496 -304 in+
FLAG 496 -208 S/H
FLAG 704 -256 out_a
FLAG 1152 32 0
FLAG 1152 -64 in-
FLAG 496 -272 in-
FLAG 960 -16 out_b
FLAG 496 48 S/H
FLAG 496 -32 in+
FLAG 496 0 in-
FLAG 592 240 0
FLAG 592 144 start
FLAG 768 96 start
FLAG 480 240 0
FLAG 480 144 ic
FLAG 736 64 ic
SYMBOL voltage 1152 -352 R0
WINDOW 123 0 0 Left 2
WINDOW 39 0 0 Left 2
SYMATTR InstName V1
SYMATTR Value PULSE(0 1 0 1n 1n 0.5u 1u)
SYMBOL voltage 1152 -208 R0
WINDOW 123 0 0 Left 2
WINDOW 39 0 0 Left 2
SYMATTR InstName V2
SYMATTR Value SINE(0 1 50k)
SYMBOL SpecialFunctions\\sample 592 -272 R0
WINDOW 3 -64 -52 Left 2
SYMATTR Value Vhigh={Vhigh} Vlow={Vlow} ic={ic}
SYMATTR InstName A1
SYMBOL voltage 1152 -64 R0
WINDOW 123 0 0 Left 2
WINDOW 39 0 0 Left 2
SYMATTR InstName V3
SYMATTR Value 0
SYMBOL LTspiceControlLibrary\\Discrete\\Previous 624 32 R0
SYMATTR InstName U1
SYMBOL LTspiceControlLibrary\\Math\\Functions\\if 704 32 R0
SYMATTR InstName U3
SYMBOL LTspiceControlLibrary\\Math\\Operands\\sub 512 0 R0
SYMATTR InstName U4
SYMBOL LTspiceControlLibrary\\Math\\Functions\\limit 832 16 R0
SYMATTR Value y={Vlow} z={Vhigh}
SYMATTR InstName U5
SYMBOL bv 592 144 R0
SYMATTR InstName B1
SYMATTR Value V=(time>0)
SYMBOL LTspiceControlLibrary\\Math\\Functions\\if 768 32 R0
SYMATTR InstName U2
SYMBOL voltage 480 144 R0
WINDOW 123 0 0 Left 2
WINDOW 39 0 0 Left 2
SYMATTR InstName V4
SYMATTR Value {ic}
TEXT 624 -464 Left 2 !.param Vhigh=10 Vlow=-10 ic=0
TEXT 432 -464 Left 2 !.tran 40u
TEXT 392 -568 Left 5 ;A - SAMPLE S/H
TEXT 424 -504 Left 4 ;Config
TEXT 424 -408 Left 4 ;Reference Element
TEXT 424 -120 Left 4 ;Estimated Block Diagram
TEXT 1096 -408 Left 4 ;Input
TEXT 752 136 Left 2 ;NOTE\n  Output impedance is not considerd.\n  Parameter Trise, Tfall, Tau, Cout, Rout,\n  Rhigh, Rlow, Td, ref and tripdt are not considerd.\n  Quantization error of output is not considerd.
