Version 4
SHEET 1 2828 680
WIRE 1264 -288 1248 -288
WIRE 1248 -272 1248 -288
WIRE 608 -240 592 -240
WIRE 608 -208 592 -208
WIRE 800 -192 784 -192
WIRE 608 -176 592 -176
WIRE 1264 -144 1248 -144
WIRE 1248 -128 1248 -144
WIRE 1040 0 688 0
WIRE 1264 0 1248 0
WIRE 1248 16 1248 0
WIRE 704 32 656 32
WIRE 848 48 848 32
WIRE 1040 48 1040 0
WIRE 1040 48 1024 48
WIRE 1056 48 1040 48
WIRE 624 64 592 64
WIRE 688 64 688 0
WIRE 704 64 688 64
WIRE 656 112 592 112
WIRE 816 112 816 96
WIRE 816 112 752 112
WIRE 848 128 848 64
WIRE 848 128 832 128
WIRE 880 160 880 96
WIRE 880 160 864 160
WIRE 608 208 592 208
WIRE 704 208 688 208
WIRE 592 224 592 208
WIRE 688 224 688 208
FLAG 1248 -192 0
FLAG 1248 -288 CLK
FLAG 1248 -48 0
FLAG 1248 -144 in+
FLAG 592 -240 in+
FLAG 592 -176 CLK
FLAG 800 -192 out_a
FLAG 1248 96 0
FLAG 1248 0 in-
FLAG 592 -208 in-
FLAG 1056 48 out_b
FLAG 592 112 CLK
FLAG 592 32 in+
FLAG 592 64 in-
FLAG 688 304 0
FLAG 688 208 start
FLAG 864 160 start
FLAG 592 304 0
FLAG 592 208 ic
FLAG 832 128 ic
SYMBOL voltage 1248 -288 R0
WINDOW 123 0 0 Left 2
WINDOW 39 0 0 Left 2
SYMATTR InstName V1
SYMATTR Value PULSE(0 1 0 1n 1n 0.5u 1u)
SYMBOL voltage 1248 -144 R0
WINDOW 123 0 0 Left 2
WINDOW 39 0 0 Left 2
SYMATTR InstName V2
SYMATTR Value SINE(0 1 50k)
SYMBOL SpecialFunctions\\sample 688 -208 R0
WINDOW 3 -64 -52 Left 2
SYMATTR Value Vhigh={Vhigh} Vlow={Vlow} ic={ic}
SYMATTR InstName A1
SYMBOL voltage 1248 0 R0
WINDOW 123 0 0 Left 2
WINDOW 39 0 0 Left 2
SYMATTR InstName V3
SYMATTR Value 0
SYMBOL LTspiceControlLibrary\\Discrete\\Previous 720 96 R0
SYMATTR InstName U4
SYMBOL LTspiceControlLibrary\\Discrete\\Edge 672 144 R0
SYMATTR InstName U8
SYMBOL LTspiceControlLibrary\\Math\\Functions\\if 800 96 R0
SYMATTR InstName U9
SYMBOL LTspiceControlLibrary\\Math\\Operands\\sub 608 64 R0
SYMATTR InstName U1
SYMBOL LTspiceControlLibrary\\Math\\Functions\\limit 928 80 R0
SYMATTR Value y={Vlow} z={Vhigh}
SYMATTR InstName U2
SYMBOL LTspiceControlLibrary\\Discrete\\Previous 720 64 R0
SYMATTR InstName U5
SYMBOL LTspiceControlLibrary\\Math\\Functions\\if 864 96 R0
SYMATTR InstName U3
SYMBOL bv 688 208 R0
SYMATTR InstName B1
SYMATTR Value V=(time>0)
SYMBOL voltage 592 208 R0
WINDOW 123 0 0 Left 2
WINDOW 39 0 0 Left 2
SYMATTR InstName V4
SYMATTR Value {ic}
TEXT 720 -400 Left 2 !.param Vhigh=10 Vlow=-10 ic=0
TEXT 528 -400 Left 2 !.tran 40u
TEXT 488 -504 Left 5 ;A - SAMPLE CLK
TEXT 520 -440 Left 4 ;Config
TEXT 520 -344 Left 4 ;Reference Element
TEXT 520 -56 Left 4 ;Estimated Block Diagram
TEXT 1192 -344 Left 4 ;Input
TEXT 848 200 Left 2 ;NOTE\n  Output impedance is not considerd.\n  Parameter Trise, Tfall, Tau, Cout, Rout,\n  Rhigh, Rlow, Td, ref and tripdt are not considerd.\n  Quantization error of output is not considerd.
