Version 4
SHEET 1 2828 688
WIRE 1264 -448 1248 -448
WIRE 528 -432 512 -432
WIRE 608 -432 592 -432
WIRE 1248 -432 1248 -448
WIRE 528 -400 512 -400
WIRE 608 -400 592 -400
WIRE 1264 -304 1248 -304
WIRE 1248 -288 1248 -304
WIRE 960 -240 720 -240
WIRE 720 -192 720 -240
WIRE 736 -192 720 -192
WIRE 960 -192 960 -240
WIRE 960 -192 944 -192
WIRE 992 -192 960 -192
WIRE 1056 -192 992 -192
WIRE 736 -144 576 -144
WIRE 752 -144 736 -144
WIRE 848 -144 848 -160
WIRE 848 -144 816 -144
WIRE 992 -144 992 -192
WIRE 544 -112 512 -112
WIRE 640 -112 608 -112
WIRE 784 -112 704 -112
WIRE 736 -80 736 -144
WIRE 752 -80 736 -80
WIRE 912 -80 912 -160
WIRE 912 -80 816 -80
WIRE 608 -48 608 -112
WIRE 608 -48 576 -48
WIRE 640 -48 608 -48
WIRE 784 -48 704 -48
WIRE 512 32 496 32
WIRE 496 48 496 32
FLAG 1248 -448 in+
FLAG 1248 -304 in-
FLAG 1248 -208 0
FLAG 1248 -352 0
FLAG 512 -432 in+
FLAG 512 -400 in-
FLAG 608 -432 Q_a
FLAG 608 -400 Qbar_a
FLAG 512 -144 in+
FLAG 512 -112 in-
FLAG 496 128 0
FLAG 1056 -192 Q_b
FLAG 1056 -144 Qbar_b
FLAG 496 32 Vt
FLAG 576 -48 Vt
SYMBOL voltage 1248 -448 R0
WINDOW 123 0 0 Left 2
WINDOW 39 0 0 Left 2
SYMATTR InstName V1
SYMATTR Value PULSE(0.45 0.55 0 1u 1u 0 2u)
SYMBOL voltage 1248 -304 R0
WINDOW 123 0 0 Left 2
WINDOW 39 0 0 Left 2
SYMATTR InstName V2
SYMATTR Value 0
SYMBOL Digital\\diffschmitt 528 -480 R0
WINDOW 3 -8 125 Left 2
SYMATTR Value Vt={Vt} Vh={Vh}
SYMATTR InstName A1
SYMBOL LTspiceControlLibrary\\Math\\Operands\\sub 528 -112 R0
SYMATTR InstName U1
SYMBOL LTspiceControlLibrary\\Math\\Operands\\nlt 768 -112 R0
SYMATTR InstName U2
SYMBOL voltage 496 32 R0
SYMATTR InstName V3
SYMATTR Value {Vt}
SYMBOL LTspiceControlLibrary\\Math\\Operands\\and 896 -160 R0
SYMATTR InstName U4
SYMBOL LTspiceControlLibrary\\Math\\Operands\\or 832 -160 R0
SYMATTR InstName U5
SYMBOL LTspiceControlLibrary\\Math\\Operands\\nle 768 -48 R0
SYMATTR InstName U3
SYMBOL LTspiceControlLibrary\\Discrete\\Previous 752 -160 R0
SYMATTR InstName U6
SYMBOL LTspiceControlLibrary\\Math\\Operands\\inv 1008 -112 R0
SYMATTR InstName U7
SYMBOL LTspiceControlLibrary\\Math\\Operands\\addk 656 -80 R0
SYMATTR Value k={Vh}
SYMATTR InstName U8
SYMBOL LTspiceControlLibrary\\Math\\Operands\\addk 656 -16 R0
SYMATTR Value k={-Vh}
SYMATTR InstName U9
TEXT 656 -568 Left 2 !.param Vt=0.5 Vh=0.025
TEXT 432 -568 Left 2 !.tran 10u
TEXT 392 -672 Left 5 ;A - SCHMITT
TEXT 424 -608 Left 4 ;Config
TEXT 424 -512 Left 4 ;Reference Element
TEXT 424 -280 Left 4 ;Estimated Block Diagram
TEXT 632 32 Left 2 ;NOTE\n  Output impedance is not considerd.\n  Parameter Vhigh, Vlow, Trise, Tfall, Tau, Cout, Rout,\n  Rhigh, Rlow, Td, ic, ref and tripdt are not considerd.
TEXT 1192 -512 Left 4 ;Input
