Version 4
SHEET 1 2828 688
WIRE 1392 -224 1376 -224
WIRE 1376 -208 1376 -224
WIRE 720 -176 704 -176
WIRE 864 -176 816 -176
WIRE 720 -128 704 -128
WIRE 864 -128 832 -128
WIRE 1392 -80 1376 -80
WIRE 1376 -64 1376 -80
WIRE 1024 16 720 16
WIRE 720 64 720 16
WIRE 736 64 720 64
WIRE 944 64 944 48
WIRE 1024 64 1024 16
WIRE 1024 64 1008 64
WIRE 1040 64 1024 64
WIRE 1104 64 1040 64
WIRE 848 96 704 96
WIRE 1040 96 1040 64
WIRE 848 128 704 128
WIRE 912 128 912 96
WIRE 944 176 944 80
WIRE 944 176 928 176
WIRE 976 208 976 112
WIRE 976 208 848 208
WIRE 752 256 736 256
WIRE 864 256 848 256
WIRE 736 272 736 256
WIRE 848 272 848 256
FLAG 1376 -224 S
FLAG 1376 -80 R
FLAG 1376 16 0
FLAG 1376 -128 0
FLAG 704 -176 S
FLAG 704 -128 R
FLAG 864 -176 Q_a
FLAG 864 -128 _Q_a
FLAG 1104 64 Q_b
FLAG 1104 96 _Q_b
FLAG 704 96 S
FLAG 704 128 R
FLAG 848 352 0
FLAG 848 256 start
FLAG 848 208 start
FLAG 736 352 0
FLAG 736 256 ic
FLAG 848 176 ic
SYMBOL voltage 1376 -224 R0
WINDOW 123 0 0 Left 2
WINDOW 39 0 0 Left 2
SYMATTR InstName V1
SYMATTR Value PULSE(0 1 0 1n 1n 1u 4u)
SYMBOL voltage 1376 -80 R0
WINDOW 123 0 0 Left 2
WINDOW 39 0 0 Left 2
SYMATTR InstName V2
SYMATTR Value PULSE(0 1 2u 1n 1n 1u 4u)
SYMBOL Digital\\srflop 768 -224 R0
WINDOW 3 -40 28 Left 2
SYMATTR Value ic={ic}
SYMATTR InstName A1
SYMBOL LTspiceControlLibrary\\Math\\Operands\\and 896 96 R0
SYMATTR InstName U1
SYMBOL LTspiceControlLibrary\\Math\\Operands\\or 832 96 R0
SYMATTR InstName U2
SYMBOL LTspiceControlLibrary\\Math\\Operands\\inv 864 160 R0
SYMATTR InstName U3
SYMBOL LTspiceControlLibrary\\Discrete\\Previous 752 96 R0
SYMATTR InstName U4
SYMBOL LTspiceControlLibrary\\Math\\Operands\\inv 1056 128 R0
SYMATTR InstName U6
SYMBOL bv 848 256 R0
SYMATTR InstName B1
SYMATTR Value V=(time>0)
SYMBOL LTspiceControlLibrary\\Math\\Functions\\if 960 112 R0
SYMATTR InstName U5
SYMBOL voltage 736 256 R0
SYMATTR InstName V3
SYMATTR Value {ic}
SYMBOL LTspiceControlLibrary\\Math\\Functions\\buf 864 208 R0
SYMATTR InstName U7
TEXT 664 -336 Left 2 !.tran 10u
TEXT 624 -440 Left 5 ;A - SRFLOP
TEXT 656 -376 Left 4 ;Config
TEXT 656 -280 Left 4 ;Reference Element
TEXT 656 -48 Left 4 ;Estimated Block Diagram
TEXT 1320 -280 Left 4 ;Input
TEXT 1016 208 Left 2 ;NOTE\n  Output impedance is not considerd.\n  Parameter Vhigh, Vlow, Trise, Tfall, Tau, Cout, Rout,\n  Rhigh, Rlow, Td, ref and tripdt are not considerd.
TEXT 888 -336 Left 2 !.param ic=0
