Version 4
SHEET 1 1328 756
WIRE 480 32 464 32
WIRE 512 32 480 32
WIRE 560 32 512 32
WIRE 656 32 640 32
WIRE 704 32 656 32
WIRE 160 96 96 96
WIRE 336 96 304 96
WIRE 416 112 416 64
WIRE 416 112 400 112
WIRE 336 160 336 128
WIRE 336 160 320 160
WIRE 368 192 368 160
WIRE 368 192 320 192
WIRE 96 208 96 96
WIRE 480 208 480 32
WIRE 480 208 96 208
WIRE 160 240 96 240
WIRE 272 240 224 240
WIRE 320 240 272 240
WIRE 432 240 432 64
WIRE 432 240 416 240
WIRE 192 288 192 272
WIRE 192 288 176 288
WIRE 96 304 96 240
WIRE 656 304 656 32
WIRE 656 304 96 304
WIRE 144 352 128 352
WIRE 240 352 224 352
WIRE 384 352 368 352
WIRE 560 352 544 352
WIRE 128 368 128 352
WIRE 224 368 224 352
WIRE 368 368 368 352
WIRE 544 368 544 352
FLAG 704 32 height
FLAG 512 32 velocity
FLAG 128 448 0
FLAG 224 448 0
FLAG 272 240 collision
FLAG 128 352 g
FLAG 224 352 radius
FLAG 320 32 g
FLAG 176 288 radius
FLAG 368 448 0
FLAG 368 352 velocity0
FLAG 544 448 0
FLAG 544 352 start
FLAG 320 192 start
FLAG 320 160 velocity0
SYMBOL LTspiceControlLibrary\\Math\\Functions\\idt 576 64 R0
WINDOW 3 0 0 Left 2
SYMATTR Value ic={height0}
SYMATTR InstName U1
SYMBOL LTspiceControlLibrary\\Math\\Functions\\idt2 400 64 R0
SYMATTR InstName U2
SYMBOL voltage 128 352 R0
SYMATTR InstName V1
SYMATTR Value {g}
SYMBOL voltage 224 352 R0
SYMATTR InstName V2
SYMATTR Value {radius}
SYMBOL LTspiceControlLibrary\\TransferFunctions\\Proportional 256 128 R0
SYMATTR Value K={-c}
SYMATTR InstName U4
SYMBOL LTspiceControlLibrary\\Discrete\\Previous 176 128 R0
SYMATTR InstName U5
SYMBOL LTspiceControlLibrary\\Math\\Operands\\le 176 272 R0
WINDOW 3 0 0 Left 2
SYMATTR Value tripdt=1e300
SYMATTR InstName U6
SYMBOL LTspiceControlLibrary\\Discrete\\Edge 336 272 R0
SYMATTR InstName U7
SYMBOL LTspiceControlLibrary\\Math\\Operands\\neg 336 64 R0
SYMATTR InstName U8
SYMBOL voltage 368 352 R0
SYMATTR InstName V3
SYMATTR Value {velocity0}
SYMBOL bv 544 352 R0
SYMATTR InstName B1
SYMATTR Value V=(time>0) ic=0
SYMBOL LTspiceControlLibrary\\Math\\Functions\\if 352 160 R0
SYMATTR InstName U3
TEXT 312 -160 Left 2 !.param g=9.81; acceleration of gravity\n.param c=0.9 ; coefficient of restitution\n.param radius=0.1; radius of ball\n.param velocity0=1 height0=1; initial condition
TEXT 64 -160 Left 2 !.tran 8.6
TEXT 24 -264 Left 5 ;Bouncing Ball
TEXT 56 -200 Left 4 ;Config
TEXT 56 -32 Left 4 ;System
