Version 4
SHEET 1 1832 804
WIRE 1120 -48 1072 -48
WIRE 1264 -48 1200 -48
WIRE 1392 -48 1264 -48
WIRE 1072 -32 1072 -48
WIRE 1264 16 1264 -48
WIRE 1312 16 1264 16
WIRE 1392 16 1376 16
WIRE 1264 48 1264 16
WIRE 544 192 496 192
WIRE 544 208 544 192
WIRE 800 208 688 208
WIRE 416 224 400 224
WIRE 432 224 432 192
WIRE 432 224 416 224
WIRE 608 224 608 208
WIRE 688 224 688 208
WIRE 688 224 672 224
WIRE 880 224 864 224
WIRE 896 224 880 224
WIRE 432 240 432 224
WIRE 544 240 432 240
WIRE 256 288 256 240
WIRE 688 288 688 224
WIRE 688 288 256 288
WIRE 720 288 720 240
WIRE 880 288 880 224
WIRE 880 288 720 288
WIRE 144 336 128 336
WIRE 336 336 224 336
WIRE 464 336 464 224
WIRE 480 336 464 336
WIRE 416 352 400 352
WIRE 464 352 464 336
WIRE 464 352 416 352
WIRE 608 352 608 336
WIRE 688 352 672 352
WIRE 464 368 464 352
WIRE 544 368 464 368
WIRE 368 400 368 272
WIRE 576 400 576 272
WIRE 640 400 640 272
WIRE 144 416 128 416
WIRE 368 416 368 400
WIRE 368 416 240 416
WIRE 464 416 464 368
WIRE 480 416 464 416
WIRE 576 416 576 400
WIRE 576 416 544 416
WIRE 752 416 576 416
WIRE 832 416 832 272
WIRE 832 416 816 416
WIRE 896 416 832 416
WIRE 512 448 496 448
WIRE 256 464 256 368
WIRE 688 464 688 352
WIRE 688 464 256 464
WIRE 640 496 640 400
WIRE 640 496 624 496
WIRE 256 512 240 512
WIRE 352 512 336 512
WIRE 448 512 432 512
WIRE 240 528 240 512
WIRE 336 528 336 512
WIRE 432 528 432 512
FLAG 1072 48 0
FLAG 1392 -48 x
FLAG 128 336 x
FLAG 240 608 0
FLAG 240 512 1
FLAG 336 208 1
FLAG 496 448 1
FLAG 432 608 0
FLAG 432 512 start
FLAG 896 224 return_value
FLAG 416 224 y
FLAG 416 352 i
FLAG 896 416 processed
FLAG 128 416 call
FLAG 1392 16 call
FLAG 336 608 0
FLAG 336 512 ic
FLAG 608 240 ic
FLAG 608 368 1
FLAG 624 496 start
SYMBOL voltage 1072 -48 R0
WINDOW 123 0 0 Left 2
WINDOW 39 0 0 Left 2
SYMATTR InstName V1
SYMATTR Value PULSE(1 5 0 1)
SYMBOL LTspiceControlLibrary\\Math\\Functions\\int 160 368 R0
SYMATTR InstName U1
SYMBOL LTspiceControlLibrary\\Discrete\\Previous 1280 80 R0
SYMATTR InstName U2
SYMBOL voltage 240 512 R0
SYMATTR InstName V2
SYMATTR Value 1
SYMBOL LTspiceControlLibrary\\Math\\Functions\\if 352 272 R0
SYMATTR InstName U4
SYMBOL LTspiceControlLibrary\\Math\\Functions\\if 352 400 R0
SYMATTR InstName U5
SYMBOL LTspiceControlLibrary\\Math\\Operands\\mul 448 224 R0
SYMATTR InstName U6
SYMBOL LTspiceControlLibrary\\Math\\Operands\\nle 496 448 R0
SYMATTR InstName U7
SYMBOL LTspiceControlLibrary\\Math\\Operands\\dec 496 368 R0
SYMATTR InstName U8
SYMBOL LTspiceControlLibrary\\Math\\Functions\\if 560 400 R0
SYMATTR InstName U9
SYMBOL LTspiceControlLibrary\\Math\\Functions\\if 560 272 R0
SYMATTR InstName U11
SYMBOL bv 432 512 R0
SYMATTR InstName B1
SYMATTR Value V=(time>0)
SYMBOL LTspiceControlLibrary\\Discrete\\Previous 272 400 R0
SYMATTR InstName U10
SYMBOL LTspiceControlLibrary\\Discrete\\Previous 272 272 R0
SYMATTR InstName U12
SYMBOL LTspiceControlLibrary\\Math\\Functions\\if 816 272 R0
SYMATTR InstName U15
SYMBOL LTspiceControlLibrary\\Discrete\\Previous 736 272 R0
SYMATTR InstName U16
SYMBOL LTspiceControlLibrary\\Math\\Operands\\inv 768 448 R0
SYMATTR InstName U17
SYMBOL LTspiceControlLibrary\\Math\\Functions\\int 1136 -16 R0
SYMATTR InstName U18
SYMBOL LTspiceControlLibrary\\Discrete\\Edge 160 448 R0
SYMATTR InstName U20
SYMBOL LTspiceControlLibrary\\Math\\Operands\\neq 1328 48 R0
SYMATTR InstName U21
SYMBOL voltage 336 512 R0
SYMATTR InstName V3
SYMATTR Value {ic}
SYMBOL LTspiceControlLibrary\\Math\\Functions\\if 624 272 R0
SYMATTR InstName U3
SYMBOL LTspiceControlLibrary\\Math\\Functions\\if 624 400 R0
SYMATTR InstName U13
TEXT 64 -160 Left 2 !.tran 1
TEXT 24 -264 Left 5 ;Factrial
TEXT 56 -200 Left 4 ;Config
TEXT 56 128 Left 4 ;Approximated Block Diagram
TEXT 96 -48 Left 2 ;int factrial(int x) {\n  int y = 1;\n  for (int i = x; i > 1; i--) y *= i;\n  return y;\n}
TEXT 56 -104 Left 4 ;Reference C-code
TEXT 1016 -104 Left 4 ;Input
TEXT 280 -160 Left 2 !.param ic=1
