Version 4
SHEET 1 880 680
WIRE -128 208 -224 208
WIRE 176 208 128 208
WIRE 208 208 176 208
WIRE 416 208 304 208
WIRE 448 208 416 208
WIRE -224 240 -224 208
WIRE 176 304 176 208
WIRE 208 304 176 304
WIRE 416 304 304 304
WIRE 448 304 416 304
WIRE -224 352 -224 320
WIRE 176 400 176 304
WIRE 208 400 176 400
WIRE 416 400 304 400
WIRE 448 400 416 400
WIRE -128 416 -224 416
WIRE -224 448 -224 416
WIRE -224 560 -224 528
FLAG -128 208 In
IOPIN -128 208 In
FLAG -224 352 0
FLAG -128 416 CLK
IOPIN -128 416 In
FLAG -224 560 0
FLAG 128 208 In
IOPIN 128 208 In
FLAG 416 208 Vo90
FLAG 416 304 Vo180
FLAG 416 400 Vo360
SYMBOL voltage -224 224 R0
WINDOW 123 0 0 Left 0
WINDOW 39 0 0 Left 0
SYMATTR InstName V1
SYMATTR Value SINE(0 {A} {f})
SYMBOL voltage -224 432 R0
WINDOW 123 0 0 Left 0
WINDOW 39 0 0 Left 0
SYMATTR InstName V2
SYMATTR Value PULSE(0V 1V 0 10n 10n {1/(4*fck)} {1/fck})
SYMBOL ZZZ\\LTspiceControlLibrary\\Discrete\\ZeroOrderHold 224 240 R0
SYMATTR Value T={1/fck}
SYMATTR InstName U1
SYMBOL ZZZ\\LTspiceControlLibrary\\Discrete\\ZeroOrderHold 224 336 R0
SYMATTR Value T={1/(2*fck)}
SYMATTR InstName U2
SYMBOL ZZZ\\LTspiceControlLibrary\\Discrete\\ZeroOrderHold 224 432 R0
SYMATTR Value T={1/(4*fck)}
SYMATTR InstName U3
TEXT -256 0 Left 4 ;LTspice Control Library ZOH Tester
TEXT -256 40 Left 2 ;1/28/23
TEXT -256 80 Left 2 !.param A=20V
TEXT -256 104 Left 2 !.param f=1kHz
TEXT -40 80 Left 2 !.tran {1/f}
TEXT -256 152 Left 2 !.param fck=SPC*f
TEXT -256 128 Left 2 !.param SPC=90
TEXT -40 112 Left 2 ;fck -- frequency of the sampling clock
TEXT -176 560 Left 2 ;The LTspice control Library ZOH does\nnot require an explicit clock, but if it did\nthis is what it might look like.
