Version 4
SHEET 1 1856 680
WIRE 608 -320 464 -320
WIRE 464 -288 464 -320
WIRE 608 -224 608 -320
WIRE 640 -224 608 -224
WIRE 656 -224 640 -224
WIRE 848 -224 784 -224
WIRE 848 -208 848 -224
WIRE 464 -176 464 -224
WIRE 464 -176 400 -176
WIRE 528 -176 464 -176
WIRE 640 -176 592 -176
WIRE 656 -176 640 -176
WIRE 400 -144 400 -176
WIRE 464 -144 464 -176
WIRE 640 -128 608 -128
WIRE 656 -128 640 -128
WIRE 816 -128 784 -128
WIRE 848 -128 816 -128
WIRE 816 -64 816 -128
WIRE 464 -48 464 -80
WIRE 608 -48 608 -128
WIRE 608 -48 464 -48
FLAG 640 -224 U
FLAG 640 -176 V
FLAG 640 -128 W
FLAG 816 -64 0
FLAG 400 -144 0
SYMBOL LTspiceControlLibrary\\Motors\\PMSMotor 784 -176 R0
SYMATTR InstName U1
SYMATTR Value Ra={Ra} Ld={Ld} Lq={Lq} Ke={Ke} Dm={Dm} Jm={Jm} Np={Np}
SYMBOL voltage 848 -224 R0
SYMATTR InstName V1
SYMATTR Value -0.8m
SYMBOL cap 448 -288 R0
SYMATTR InstName C1
SYMATTR Value 1u
SYMBOL cap 528 -160 R270
WINDOW 0 32 32 VTop 2
WINDOW 3 0 32 VBottom 2
SYMATTR InstName C2
SYMATTR Value 1u
SYMBOL cap 448 -144 R0
SYMATTR InstName C3
SYMATTR Value 1u
TEXT 392 -368 Left 2 !.tran 3 startup
TEXT 520 -16 Left 2 !** Anaheim Automation bly171s-15v-8000 parameters\n.params Ra=0.35/2 Ld=0.35m/2 Lq=0.35m/2\n.params Ke=1.57m*60/(2*pi)/sqrt(2)/Np Dm=Jm/0.3 Jm=340u*7.062m Np=8/2
