Version 4
SHEET 1 1856 680
WIRE 608 -320 464 -320
WIRE 464 -288 464 -320
WIRE 608 -224 608 -320
WIRE 640 -224 608 -224
WIRE 656 -224 640 -224
WIRE 848 -224 784 -224
WIRE 848 -208 848 -224
WIRE 464 -176 464 -208
WIRE 464 -176 400 -176
WIRE 512 -176 464 -176
WIRE 640 -176 592 -176
WIRE 656 -176 640 -176
WIRE 464 -160 464 -176
WIRE 400 -144 400 -176
WIRE 640 -128 608 -128
WIRE 656 -128 640 -128
WIRE 816 -128 784 -128
WIRE 848 -128 816 -128
WIRE 816 -64 816 -128
WIRE 464 -48 464 -80
WIRE 608 -48 608 -128
WIRE 608 -48 464 -48
FLAG 640 -224 U
FLAG 640 -176 V
FLAG 640 -128 W
FLAG 816 -64 0
FLAG 400 -144 0
SYMBOL current 848 -208 R0
WINDOW 123 0 0 Left 2
WINDOW 39 0 0 Left 2
SYMATTR InstName I1
SYMATTR Value {1000*2*pi/60}
SYMBOL LTspiceControlLibrary\\Motors\\PMSMotor 784 -176 R0
SYMATTR InstName U1
SYMATTR Value Ra={Ra} Ld={Ld} Lq={Lq} Ke={Ke} Dm={Dm} Jm={Jm} Np={Np}
SYMBOL res 448 -304 R0
SYMATTR InstName R1
SYMATTR Value 1k
SYMBOL res 448 -176 R0
SYMATTR InstName R2
SYMATTR Value 1k
SYMBOL res 496 -160 R270
WINDOW 0 32 56 VTop 2
WINDOW 3 0 56 VBottom 2
SYMATTR InstName R3
SYMATTR Value 1k
TEXT 392 -368 Left 2 !.tran {60/1000} startup
TEXT 496 -16 Left 2 !** Anaheim Automation bly171s-15v-8000 parameters\n.params Ra=0.35/2 Ld=0.35m/2 Lq=0.35m/2\n.params Ke=1.57m*60/(2*pi)/sqrt(2)/Np Dm=Jm/0.3 Jm=340u*7.062m Np=8/2
