Version 4
SHEET 1 1108 680
WIRE 112 128 64 128
WIRE 160 128 112 128
WIRE 368 128 288 128
WIRE 400 128 368 128
WIRE 64 144 64 128
WIRE 400 144 400 128
WIRE 160 224 64 224
WIRE 400 224 288 224
WIRE 64 240 64 224
WIRE 400 272 400 224
FLAG 64 240 0
FLAG 400 272 0
FLAG 112 128 V
FLAG 368 128 Tm
SYMBOL voltage 64 128 R0
WINDOW 123 0 0 Left 2
WINDOW 39 0 0 Left 2
SYMATTR InstName V1
SYMATTR Value 1.5
SYMBOL voltage 400 128 R0
WINDOW 123 0 0 Left 2
WINDOW 39 0 0 Left 2
SYMATTR InstName V2
SYMATTR Value 0
SYMBOL DCMotorInternalModel 288 176 R0
SYMATTR InstName X1
SYMATTR SpiceLine Ra=0.682 La=0.2m Ke=1.43m Kt=1.16m Dm=0.243u Jm=0.2u
TEXT 40 32 Left 2 !.dc V2 0 2.55m 0.05m
TEXT 520 32 Left 2 ;Analogy\nElectric Circuit  - Rotating Machinery\nQ: charge - Pm: angle\nI: current - Om: angular velocity\nV: voltage - Tm: torque\nR: resistance - Dm: viscous resistance\nL: inductance - Jm: moment of inertia\nC: capacitance - Km: torsion coefficient
TEXT 216 88 Left 2 ;FA-130RA-2270
TEXT 32 -24 Left 5 ;DC Motor T-N and T-I Characteristic
TEXT 520 296 Left 2 ;WaveForm\nX-axis\n  torque: V(Tm)\nY-axis\n  current: -I(V1)\n  angular velocity: I(V2)\n  efficiency: V(Tm)*I(V2)/(V(V)*-I(V1))
