Version 4
SHEET 1 1660 680
WIRE 112 96 80 96
WIRE 176 96 112 96
WIRE 368 96 240 96
WIRE 400 96 368 96
WIRE 80 128 80 96
WIRE 240 128 240 96
WIRE 400 128 400 96
WIRE 176 144 176 96
WIRE 192 144 176 144
WIRE 192 192 176 192
WIRE 80 240 80 208
WIRE 176 240 176 192
WIRE 176 240 80 240
WIRE 240 240 240 208
WIRE 400 240 400 208
WIRE 400 240 240 240
WIRE 80 256 80 240
WIRE 400 256 400 240
FLAG 400 256 0
FLAG 80 256 0
FLAG 368 96 E_OUT
FLAG 112 96 S_IN
SYMBOL voltage 80 112 R0
SYMATTR InstName V1
SYMATTR Value 1000
SYMBOL voltage 400 112 R0
WINDOW 123 0 0 Left 2
WINDOW 39 24 124 Left 2
SYMATTR SpiceLine Rser=1u
SYMATTR InstName V2
SYMATTR Value PULSE(0 {0.6*Nser} 0 1)
SYMBOL LTspiceControlLibrary\\Sources\\SolarCells 240 112 R0
WINDOW 3 -128 80 Invisible 2
SYMATTR Value Nser={Nser} Nper={Nper} S0={S0} Isc0={Isc0} Rser1={Rser1} Rper1={Rper1} Is={Is} Eg={Eg} N={N}
SYMATTR InstName U1
TEXT 104 -96 Left 2 !** solar cell paramteres\n.param Nser=36 Nper=1\n.param S0=1000 Isc0=1\n.param Rser1=10m Rper1=1k\n.param Is=10n Eg=1.11 N=1.2
TEXT 48 -136 Left 2 !.dc V2 0 {0.6*Nser} {0.01*Nser} V1 0 1000 200
TEXT 48 48 Left 2 ;light intensity
TEXT 368 48 Left 2 ;electric output
TEXT 16 -200 Left 5 ;Solar Cell I-V Curve
