Version 4
SHEET 1 3572 848
WIRE 720 32 432 32
WIRE 720 64 720 32
WIRE 816 64 720 64
WIRE 1024 64 944 64
WIRE 1088 64 1024 64
WIRE 720 80 720 64
WIRE 1088 80 1088 64
WIRE 432 144 432 32
WIRE 720 160 720 144
WIRE 816 160 720 160
WIRE 960 160 944 160
WIRE 1088 160 960 160
WIRE 960 224 960 160
WIRE 720 240 720 160
WIRE 432 352 432 224
WIRE 720 352 720 320
WIRE 720 352 432 352
WIRE 432 368 432 352
WIRE 464 560 432 560
WIRE 720 560 464 560
WIRE 816 560 784 560
WIRE 928 560 880 560
WIRE 1008 560 928 560
WIRE 1040 560 1008 560
WIRE 1152 560 1104 560
WIRE 1200 560 1152 560
WIRE 752 608 752 592
WIRE 432 624 432 560
WIRE 752 624 752 608
WIRE 1232 624 1232 592
WIRE 928 640 928 560
WIRE 1008 640 992 640
WIRE 1072 640 1072 592
WIRE 1072 640 1008 640
FLAG 432 368 0
FLAG 672 256 X
FLAG 672 304 0
FLAG 432 32 DC_P
FLAG 1264 560 X
FLAG 1232 704 0
FLAG 432 704 0
FLAG 464 560 om*
FLAG 1008 560 m*_p
FLAG 1008 640 m*_i
FLAG 1152 560 m*
FLAG 960 224 0
FLAG 752 704 0
FLAG 752 608 om
FLAG 1024 64 TM
SYMBOL voltage 432 128 R0
WINDOW 123 0 0 Left 2
WINDOW 39 0 0 Left 2
SYMATTR InstName V1
SYMATTR Value 3
SYMBOL sw 720 336 M180
SYMATTR InstName S1
SYMBOL voltage 432 608 R0
WINDOW 123 0 0 Left 2
WINDOW 39 0 0 Left 2
SYMATTR InstName V2
SYMATTR Value PULSE(0 100 0 100m)
SYMBOL sub 736 592 R0
SYMATTR InstName U1
SYMBOL nle 1216 592 R0
SYMATTR InstName U3
SYMBOL Proportional 832 592 R0
SYMATTR Value K=0.5
SYMATTR InstName U4
SYMBOL add 1056 592 R0
SYMATTR InstName U5
SYMBOL TriangleWaveVoltage 1232 608 R0
SYMATTR InstName U6
SYMATTR Value V1=0 V2=1 Tperiod={1/1k} tratio=1
SYMBOL LTspiceControlLibrary\\Motors\\DCMotor 944 112 R0
SYMATTR InstName U7
SYMBOL voltage 1088 64 R0
WINDOW 123 0 0 Left 2
WINDOW 39 0 0 Left 2
SYMATTR InstName V3
SYMATTR Value SINE(0 1m 10)
SYMBOL bv 752 608 R0
SYMATTR InstName B1
SYMATTR Value V=I(V3)
SYMBOL diode 736 144 R180
WINDOW 0 24 64 Left 2
WINDOW 3 24 0 Left 2
SYMATTR InstName D1
SYMBOL LTspiceControlLibrary\\TransferFunctions\\LimitedIntegral 944 672 R0
SYMATTR Value T=0.3
SYMATTR Value2 Y0=0 Ymin=0 Ymax=1
SYMATTR InstName U2
TEXT 408 -200 Left 2 !.tran 0 300m 0 startup
TEXT 408 -168 Left 2 !.model SW SW(Ron=1 Roff=1Meg Vt=0.5)\n.model D D(Ron=.1 Roff=1Meg Vfwd=.4)
TEXT 352 456 Left 4 ;Controller
TEXT 424 504 Left 2 ;speed controller
TEXT 1208 496 Left 2 ;PWM
TEXT 360 -248 Left 4 ;Config
TEXT 320 -304 Left 5 ;DC Motor Speed Control
TEXT 360 -88 Left 4 ;Circuit
TEXT 1056 -200 Left 2 ;Analogy between\nElectric Circuit  - Rotating Machinery\nQ: charge - Pm: angle\nI: current - Om: angular velocity\nV: voltage - Tm: torque\nR: resistance - Dm: viscous resistance\nL: inductance - Jm: moment of inertia\nC: capacitance - Km: torsion coefficient
TEXT 1152 112 Left 2 ;disturbance torque
