Version 4
SHEET 1 880 1108
WIRE -1792 -992 -2208 -992
WIRE -1536 -992 -1792 -992
WIRE -1312 -992 -1536 -992
WIRE -1792 -960 -1792 -992
WIRE -1712 -960 -1792 -960
WIRE -1536 -960 -1536 -992
WIRE -1456 -960 -1536 -960
WIRE -1312 -960 -1312 -992
WIRE -1232 -960 -1312 -960
WIRE -1792 -944 -1792 -960
WIRE -1712 -944 -1712 -960
WIRE -1536 -944 -1536 -960
WIRE -1456 -944 -1456 -960
WIRE -1312 -944 -1312 -960
WIRE -1232 -944 -1232 -960
WIRE -1792 -848 -1792 -864
WIRE -1712 -848 -1712 -880
WIRE -1712 -848 -1792 -848
WIRE -1536 -848 -1536 -864
WIRE -1456 -848 -1456 -880
WIRE -1456 -848 -1536 -848
WIRE -1312 -848 -1312 -864
WIRE -1232 -848 -1232 -880
WIRE -1232 -848 -1312 -848
WIRE -1792 -784 -1792 -848
WIRE -1280 -784 -1792 -784
WIRE -1120 -784 -1280 -784
WIRE -960 -784 -1040 -784
WIRE -816 -784 -880 -784
WIRE -2208 -736 -2208 -992
WIRE -1536 -688 -1536 -848
WIRE -1280 -688 -1536 -688
WIRE -1120 -688 -1280 -688
WIRE -960 -688 -1040 -688
WIRE -816 -688 -816 -784
WIRE -816 -688 -880 -688
WIRE -1312 -592 -1312 -848
WIRE -1280 -592 -1312 -592
WIRE -1120 -592 -1280 -592
WIRE -960 -592 -1040 -592
WIRE -816 -592 -816 -688
WIRE -816 -592 -880 -592
WIRE -1792 -544 -1792 -784
WIRE -1712 -544 -1792 -544
WIRE -1536 -544 -1536 -688
WIRE -1456 -544 -1536 -544
WIRE -1312 -544 -1312 -592
WIRE -1232 -544 -1312 -544
WIRE -1792 -528 -1792 -544
WIRE -1536 -528 -1536 -544
WIRE -1312 -528 -1312 -544
WIRE -1712 -512 -1712 -544
WIRE -1456 -512 -1456 -544
WIRE -1232 -512 -1232 -544
WIRE -1792 -432 -1792 -448
WIRE -1712 -432 -1712 -448
WIRE -1712 -432 -1792 -432
WIRE -1536 -432 -1536 -448
WIRE -1456 -432 -1456 -448
WIRE -1456 -432 -1536 -432
WIRE -1312 -432 -1312 -448
WIRE -1232 -432 -1232 -448
WIRE -1232 -432 -1312 -432
WIRE -2208 -400 -2208 -656
WIRE -1792 -400 -1792 -432
WIRE -1792 -400 -2208 -400
WIRE -1536 -400 -1536 -432
WIRE -1536 -400 -1792 -400
WIRE -1312 -400 -1312 -432
WIRE -1312 -400 -1536 -400
WIRE -2208 -368 -2208 -400
WIRE -2000 -176 -2096 -176
WIRE -2096 -160 -2096 -176
WIRE -1344 -160 -1360 -160
WIRE -2000 -144 -2000 -176
WIRE -1760 -144 -2000 -144
WIRE -1616 -144 -1760 -144
WIRE -1520 -144 -1552 -144
WIRE -1344 -128 -1360 -128
WIRE -2128 -112 -2176 -112
WIRE -1584 -112 -1632 -112
WIRE -2176 -96 -2176 -112
WIRE -2096 -96 -2128 -112
WIRE -1344 -96 -1360 -96
WIRE -1840 -80 -2000 -80
WIRE -1616 -80 -1840 -80
WIRE -1520 -80 -1552 -80
WIRE -1344 -64 -1360 -64
WIRE -2160 -48 -2176 -48
WIRE -2000 -48 -2000 -80
WIRE -2000 -48 -2032 -48
WIRE -1632 -48 -1632 -112
WIRE -1584 -48 -1632 -48
WIRE -1344 -32 -1360 -32
WIRE -2176 -16 -2176 -48
WIRE -1888 -16 -2176 -16
WIRE -1616 -16 -1888 -16
WIRE -1520 -16 -1552 -16
WIRE -1344 0 -1360 0
WIRE -1840 16 -1840 -80
WIRE -1760 16 -1760 -144
WIRE -1632 16 -1632 -48
WIRE -1584 16 -1632 16
WIRE -1888 48 -1888 -16
WIRE -1872 48 -1888 48
WIRE -1632 48 -1632 16
WIRE -1632 48 -1648 48
FLAG -2208 -368 0
FLAG -1840 -928 UP
FLAG -1840 -880 0
FLAG -1280 -784 U
FLAG -1840 -512 UN
FLAG -1840 -464 0
FLAG -1584 -928 VP
FLAG -1584 -880 0
FLAG -1584 -512 VN
FLAG -1584 -464 0
FLAG -1280 -688 V
FLAG -2208 -992 IN
FLAG -1344 -160 UP
FLAG -1344 -64 VN
FLAG -1344 -128 UN
FLAG -1344 -96 VP
FLAG -1360 -928 WP
FLAG -1360 -880 0
FLAG -1360 -512 WN
FLAG -1360 -464 0
FLAG -1280 -592 W
FLAG -1344 0 WN
FLAG -1344 -32 WP
FLAG -2176 -96 0
SYMBOL voltage -2208 -752 R0
WINDOW 123 0 0 Left 2
WINDOW 39 0 0 Left 2
SYMATTR InstName V1
SYMATTR Value 100
SYMBOL diode -1728 -880 M180
WINDOW 0 24 64 Left 2
WINDOW 3 24 0 Left 2
SYMATTR InstName D1
SYMBOL res -976 -768 R270
WINDOW 0 32 56 VTop 2
WINDOW 3 0 56 VBottom 2
SYMATTR InstName R1
SYMATTR Value {Rload}
SYMBOL ind -1136 -768 R270
WINDOW 0 32 56 VTop 2
WINDOW 3 5 56 VBottom 2
SYMATTR InstName L1
SYMATTR Value {Lload}
SYMBOL sw -1792 -848 M180
SYMATTR InstName S1
SYMBOL sw -1792 -432 M180
SYMATTR InstName S2
SYMBOL sw -1536 -848 M180
SYMATTR InstName S3
SYMBOL sw -1536 -432 M180
SYMATTR InstName S4
SYMBOL diode -1728 -448 M180
WINDOW 0 24 64 Left 2
WINDOW 3 24 0 Left 2
SYMATTR InstName D2
SYMBOL diode -1472 -880 M180
WINDOW 0 24 64 Left 2
WINDOW 3 24 0 Left 2
SYMATTR InstName D3
SYMBOL diode -1472 -448 M180
WINDOW 0 24 64 Left 2
WINDOW 3 24 0 Left 2
SYMATTR InstName D4
SYMBOL sw -1312 -848 M180
SYMATTR InstName S5
SYMBOL sw -1312 -432 M180
SYMATTR InstName S6
SYMBOL diode -1248 -880 M180
WINDOW 0 24 64 Left 2
WINDOW 3 24 0 Left 2
SYMATTR InstName D5
SYMBOL diode -1248 -448 M180
WINDOW 0 24 64 Left 2
WINDOW 3 24 0 Left 2
SYMATTR InstName D6
SYMBOL res -976 -672 R270
WINDOW 0 32 56 VTop 2
WINDOW 3 0 56 VBottom 2
SYMATTR InstName R2
SYMATTR Value {Rload}
SYMBOL ind -1136 -672 R270
WINDOW 0 32 56 VTop 2
WINDOW 3 5 56 VBottom 2
SYMATTR InstName L2
SYMATTR Value {Lload}
SYMBOL res -976 -576 R270
WINDOW 0 32 56 VTop 2
WINDOW 3 0 56 VBottom 2
SYMATTR InstName R3
SYMATTR Value {Rload}
SYMBOL ind -1136 -576 R270
WINDOW 0 32 56 VTop 2
WINDOW 3 5 56 VBottom 2
SYMATTR InstName L3
SYMATTR Value {Lload}
SYMBOL 3PhaseComplementaryPWM -1520 -208 R0
WINDOW 123 8 265 Left 2
SYMATTR InstName U1
SYMATTR Value Vin1=-1 Vin2=1 Tperiod=100u Tdead=3u
SYMATTR Value2 Tdelay=0 tripdt=100m*Tdead
SYMBOL LTspiceControlLibrary\\Sources\\3PhaseWyeSinWaveVoltage -2096 -176 R0
WINDOW 3 -56 144 Left 2
SYMATTR Value Vamp={2/sqrt(3)} Freq=100
SYMATTR InstName U3
SYMBOL LTspiceControlLibrary\\Math\\Functions\\min -1856 16 M180
SYMATTR InstName U2
SYMBOL LTspiceControlLibrary\\Math\\Functions\\min -1776 16 M180
SYMATTR InstName U4
SYMBOL LTspiceControlLibrary\\Math\\Operands\\inc -1696 80 R0
SYMATTR InstName U5
SYMBOL LTspiceControlLibrary\\Math\\Operands\\sub -1600 16 R0
SYMATTR InstName U6
SYMBOL LTspiceControlLibrary\\Math\\Operands\\sub -1600 -48 R0
SYMATTR InstName U7
SYMBOL LTspiceControlLibrary\\Math\\Operands\\sub -1600 -112 R0
SYMATTR InstName U8
TEXT -2216 -1160 Left 2 !.tran 0 20m 0 startup
TEXT -2216 -1128 Left 2 !.model SW SW(Ron=1 Roff=1Meg Vt=0.5)
TEXT -1520 -216 Left 2 ;PWM generator
TEXT -2160 -216 Left 2 ;reference
TEXT -1088 -896 Left 2 !.params Lload=1m\n.params Rload=1
TEXT -1856 -216 Left 2 ;two-phase modulation
TEXT -2256 -1208 Left 4 ;Config
TEXT -2296 -1264 Left 5 ;Three-Phase Inverter
TEXT -2256 -1056 Left 4 ;Circuit
TEXT -2248 -264 Left 4 ;Controller
TEXT -1624 96 Left 2 ;NOTE:\nIf you want to simulate the dead time of gate signals with accuracy,\nset maximum timestep of transient analysis below the dead time\nor set the parameter 'tripdt' of PWM generator below the dead time.\nSmaller value brings more accurate but slower simulation.
