Version 4
SHEET 1 7940 2764
WIRE -256 272 -272 272
WIRE -272 288 -272 272
WIRE -144 512 -320 512
WIRE 32 512 16 512
WIRE 224 512 208 512
WIRE 512 512 384 512
WIRE 544 512 512 512
WIRE 992 512 864 512
WIRE 1184 512 1056 512
WIRE 1360 512 1344 512
WIRE 1552 512 1536 512
WIRE 1840 512 1712 512
WIRE 1872 512 1840 512
WIRE 2352 512 2176 512
WIRE 2528 512 2512 512
WIRE 2720 512 2704 512
WIRE 2992 512 2880 512
WIRE 3216 512 3056 512
WIRE 3248 512 3216 512
WIRE 3728 512 3552 512
WIRE 3904 512 3888 512
WIRE 4096 512 4080 512
WIRE 4368 512 4256 512
WIRE 4480 512 4368 512
WIRE 4512 512 4480 512
WIRE 5056 512 4928 512
WIRE 5248 512 5120 512
WIRE 5424 512 5408 512
WIRE 5616 512 5600 512
WIRE 5888 512 5776 512
WIRE 6096 512 5952 512
WIRE 6128 512 6096 512
WIRE 6608 512 6480 512
WIRE 6800 512 6672 512
WIRE 6976 512 6960 512
WIRE 7168 512 7152 512
WIRE 7536 512 7328 512
WIRE 7648 512 7536 512
WIRE 7680 512 7648 512
WIRE 32 560 32 512
WIRE 208 560 208 512
WIRE 512 560 512 512
WIRE 1360 560 1360 512
WIRE 1536 560 1536 512
WIRE 1840 560 1840 512
WIRE 2528 560 2528 512
WIRE 2704 560 2704 512
WIRE 3216 560 3216 512
WIRE 3904 560 3904 512
WIRE 4080 560 4080 512
WIRE 4480 560 4480 512
WIRE 5424 560 5424 512
WIRE 5600 560 5600 512
WIRE 6096 560 6096 512
WIRE 6976 560 6976 512
WIRE 7152 560 7152 512
WIRE 7536 560 7536 512
WIRE 7648 560 7648 512
WIRE 4368 576 4368 512
WIRE 32 688 32 640
WIRE 32 688 -320 688
WIRE 208 688 208 640
WIRE 208 688 32 688
WIRE 512 688 512 640
WIRE 512 688 208 688
WIRE 1360 688 1360 640
WIRE 1360 688 864 688
WIRE 1536 688 1536 640
WIRE 1536 688 1360 688
WIRE 1840 688 1840 640
WIRE 1840 688 1536 688
WIRE 2528 688 2528 640
WIRE 2528 688 2176 688
WIRE 2704 688 2704 640
WIRE 2704 688 2528 688
WIRE 3216 688 3216 640
WIRE 3216 688 2704 688
WIRE 3904 688 3904 640
WIRE 3904 688 3552 688
WIRE 4080 688 4080 640
WIRE 4080 688 3904 688
WIRE 4368 688 4368 640
WIRE 4368 688 4080 688
WIRE 4480 688 4480 640
WIRE 4480 688 4368 688
WIRE 5424 688 5424 640
WIRE 5424 688 4928 688
WIRE 5600 688 5600 640
WIRE 5600 688 5424 688
WIRE 6096 688 6096 640
WIRE 6096 688 5600 688
WIRE 6976 688 6976 640
WIRE 6976 688 6480 688
WIRE 7152 688 7152 640
WIRE 7152 688 6976 688
WIRE 7536 688 7536 624
WIRE 7536 688 7152 688
WIRE 7648 688 7648 640
WIRE 7648 688 7536 688
WIRE -320 704 -320 688
WIRE 864 704 864 688
WIRE 2176 704 2176 688
WIRE 3552 704 3552 688
WIRE 4928 704 4928 688
WIRE 6480 704 6480 688
WIRE 4496 784 4464 784
WIRE 7584 784 7552 784
WIRE -64 800 -96 800
WIRE 496 800 464 800
WIRE 1264 800 1232 800
WIRE 1824 800 1792 800
WIRE 2432 800 2400 800
WIRE 3200 800 3168 800
WIRE 3808 800 3776 800
WIRE 5328 800 5296 800
WIRE 6080 800 6048 800
WIRE 6880 800 6848 800
WIRE -304 848 -320 848
WIRE -96 848 -96 800
WIRE -96 848 -144 848
WIRE -80 848 -96 848
WIRE 32 848 -16 848
WIRE 80 848 32 848
WIRE 176 848 144 848
WIRE 256 848 240 848
WIRE 448 848 352 848
WIRE 464 848 464 800
WIRE 464 848 448 848
WIRE 480 848 464 848
WIRE 560 848 544 848
WIRE 864 848 848 848
WIRE 1232 848 1232 800
WIRE 1232 848 1136 848
WIRE 1248 848 1232 848
WIRE 1360 848 1312 848
WIRE 1408 848 1360 848
WIRE 1504 848 1472 848
WIRE 1584 848 1568 848
WIRE 1776 848 1680 848
WIRE 1792 848 1792 800
WIRE 1792 848 1776 848
WIRE 1808 848 1792 848
WIRE 1888 848 1872 848
WIRE 2192 848 2176 848
WIRE 2400 848 2400 800
WIRE 2400 848 2352 848
WIRE 2416 848 2400 848
WIRE 2528 848 2480 848
WIRE 2576 848 2528 848
WIRE 2672 848 2640 848
WIRE 2752 848 2736 848
WIRE 3152 848 2960 848
WIRE 3168 848 3168 800
WIRE 3168 848 3152 848
WIRE 3184 848 3168 848
WIRE 3264 848 3248 848
WIRE 3568 848 3552 848
WIRE 3776 848 3776 800
WIRE 3776 848 3728 848
WIRE 3792 848 3776 848
WIRE 3904 848 3856 848
WIRE 3952 848 3904 848
WIRE 4048 848 4016 848
WIRE 4336 848 4272 848
WIRE 4352 848 4336 848
WIRE 4464 848 4464 784
WIRE 4464 848 4448 848
WIRE 4480 848 4464 848
WIRE 4560 848 4544 848
WIRE 4592 848 4560 848
WIRE 4928 848 4912 848
WIRE 5296 848 5296 800
WIRE 5296 848 5200 848
WIRE 5312 848 5296 848
WIRE 5424 848 5376 848
WIRE 5472 848 5424 848
WIRE 5568 848 5536 848
WIRE 5648 848 5632 848
WIRE 6032 848 5856 848
WIRE 6048 848 6048 800
WIRE 6048 848 6032 848
WIRE 6064 848 6048 848
WIRE 6144 848 6128 848
WIRE 6480 848 6464 848
WIRE 6848 848 6848 800
WIRE 6848 848 6752 848
WIRE 6864 848 6848 848
WIRE 6976 848 6928 848
WIRE 7024 848 6976 848
WIRE 7120 848 7088 848
WIRE 7200 848 7184 848
WIRE 7424 848 7360 848
WIRE 7440 848 7424 848
WIRE 7552 848 7552 784
WIRE 7552 848 7536 848
WIRE 7568 848 7552 848
WIRE 7648 848 7632 848
WIRE 7680 848 7648 848
WIRE 32 928 32 848
WIRE 1360 928 1360 848
WIRE 2528 928 2528 848
WIRE 3904 928 3904 848
WIRE 4144 928 4144 880
WIRE 4560 928 4560 848
WIRE 4560 928 4144 928
WIRE 5424 928 5424 848
WIRE 6976 928 6976 848
WIRE 7232 928 7232 880
WIRE 7648 928 7648 848
WIRE 7648 928 7232 928
WIRE -272 960 -272 880
WIRE 0 960 -272 960
WIRE 80 960 64 960
WIRE 208 960 208 880
WIRE 208 960 144 960
WIRE 256 960 208 960
WIRE 448 960 448 848
WIRE 448 960 320 960
WIRE 896 960 896 880
WIRE 1328 960 896 960
WIRE 1408 960 1392 960
WIRE 1536 960 1536 880
WIRE 1536 960 1472 960
WIRE 1584 960 1536 960
WIRE 1776 960 1776 848
WIRE 1776 960 1648 960
WIRE 2224 960 2224 880
WIRE 2496 960 2224 960
WIRE 2576 960 2560 960
WIRE 2704 960 2704 880
WIRE 2704 960 2640 960
WIRE 2752 960 2704 960
WIRE 3152 960 3152 848
WIRE 3152 960 2816 960
WIRE 3600 960 3600 880
WIRE 3872 960 3600 960
WIRE 3952 960 3936 960
WIRE 4080 960 4080 880
WIRE 4080 960 4016 960
WIRE 4128 960 4080 960
WIRE 4336 960 4336 848
WIRE 4336 960 4192 960
WIRE 4960 960 4960 880
WIRE 5392 960 4960 960
WIRE 5472 960 5456 960
WIRE 5600 960 5600 880
WIRE 5600 960 5536 960
WIRE 5648 960 5600 960
WIRE 6032 960 6032 848
WIRE 6032 960 5712 960
WIRE 6512 960 6512 880
WIRE 6944 960 6512 960
WIRE 7024 960 7008 960
WIRE 7152 960 7152 880
WIRE 7152 960 7088 960
WIRE 7200 960 7152 960
WIRE 7424 960 7424 848
WIRE 7424 960 7264 960
WIRE -288 1104 -320 1104
WIRE -32 1104 -80 1104
WIRE 80 1104 32 1104
WIRE 240 1104 144 1104
WIRE 544 1104 304 1104
WIRE -160 1424 -320 1424
WIRE 16 1424 0 1424
WIRE 112 1424 16 1424
WIRE 224 1424 160 1424
WIRE 496 1424 384 1424
WIRE 528 1424 496 1424
WIRE 992 1424 864 1424
WIRE 1168 1424 1056 1424
WIRE 1344 1424 1328 1424
WIRE 1440 1424 1344 1424
WIRE 1552 1424 1488 1424
WIRE 1840 1424 1712 1424
WIRE 1872 1424 1840 1424
WIRE 2352 1424 2176 1424
WIRE 2528 1424 2512 1424
WIRE 2624 1424 2528 1424
WIRE 2720 1424 2672 1424
WIRE 2992 1424 2880 1424
WIRE 3216 1424 3056 1424
WIRE 3248 1424 3216 1424
WIRE 3728 1424 3552 1424
WIRE 3904 1424 3888 1424
WIRE 4000 1424 3904 1424
WIRE 4096 1424 4048 1424
WIRE 4368 1424 4256 1424
WIRE 4480 1424 4368 1424
WIRE 4512 1424 4480 1424
WIRE 5056 1424 4928 1424
WIRE 5232 1424 5120 1424
WIRE 5408 1424 5392 1424
WIRE 5504 1424 5408 1424
WIRE 5616 1424 5552 1424
WIRE 5872 1424 5776 1424
WIRE 6096 1424 5936 1424
WIRE 6128 1424 6096 1424
WIRE 6608 1424 6480 1424
WIRE 6784 1424 6672 1424
WIRE 6960 1424 6944 1424
WIRE 7056 1424 6960 1424
WIRE 7168 1424 7104 1424
WIRE 7536 1424 7328 1424
WIRE 7648 1424 7536 1424
WIRE 7680 1424 7648 1424
WIRE 16 1472 16 1424
WIRE 160 1472 160 1424
WIRE 496 1472 496 1424
WIRE 1344 1472 1344 1424
WIRE 1488 1472 1488 1424
WIRE 1840 1472 1840 1424
WIRE 2528 1472 2528 1424
WIRE 2672 1472 2672 1424
WIRE 3216 1472 3216 1424
WIRE 3904 1472 3904 1424
WIRE 4048 1472 4048 1424
WIRE 4480 1472 4480 1424
WIRE 5408 1472 5408 1424
WIRE 5552 1472 5552 1424
WIRE 6096 1472 6096 1424
WIRE 6960 1472 6960 1424
WIRE 7104 1472 7104 1424
WIRE 7648 1472 7648 1424
WIRE 112 1488 112 1424
WIRE 1440 1488 1440 1424
WIRE 2624 1488 2624 1424
WIRE 4000 1488 4000 1424
WIRE 4368 1488 4368 1424
WIRE 5504 1488 5504 1424
WIRE 7056 1488 7056 1424
WIRE 7536 1488 7536 1424
WIRE 16 1600 16 1552
WIRE 16 1600 -320 1600
WIRE 112 1600 112 1536
WIRE 112 1600 16 1600
WIRE 160 1600 160 1552
WIRE 160 1600 112 1600
WIRE 496 1600 496 1552
WIRE 496 1600 160 1600
WIRE 1344 1600 1344 1552
WIRE 1344 1600 864 1600
WIRE 1440 1600 1440 1536
WIRE 1440 1600 1344 1600
WIRE 1488 1600 1488 1552
WIRE 1488 1600 1440 1600
WIRE 1840 1600 1840 1552
WIRE 1840 1600 1488 1600
WIRE 2528 1600 2528 1552
WIRE 2528 1600 2176 1600
WIRE 2624 1600 2624 1536
WIRE 2624 1600 2528 1600
WIRE 2672 1600 2672 1552
WIRE 2672 1600 2624 1600
WIRE 3216 1600 3216 1552
WIRE 3216 1600 2672 1600
WIRE 3904 1600 3904 1552
WIRE 3904 1600 3552 1600
WIRE 4000 1600 4000 1536
WIRE 4000 1600 3904 1600
WIRE 4048 1600 4048 1552
WIRE 4048 1600 4000 1600
WIRE 4368 1600 4368 1552
WIRE 4368 1600 4048 1600
WIRE 4480 1600 4480 1552
WIRE 4480 1600 4368 1600
WIRE 5408 1600 5408 1552
WIRE 5408 1600 4928 1600
WIRE 5504 1600 5504 1536
WIRE 5504 1600 5408 1600
WIRE 5552 1600 5552 1552
WIRE 5552 1600 5504 1600
WIRE 6096 1600 6096 1552
WIRE 6096 1600 5552 1600
WIRE 6960 1600 6960 1552
WIRE 6960 1600 6480 1600
WIRE 7056 1600 7056 1536
WIRE 7056 1600 6960 1600
WIRE 7104 1600 7104 1552
WIRE 7104 1600 7056 1600
WIRE 7536 1600 7536 1552
WIRE 7536 1600 7104 1600
WIRE 7648 1600 7648 1552
WIRE 7648 1600 7536 1600
WIRE -320 1616 -320 1600
WIRE 864 1616 864 1600
WIRE 2176 1616 2176 1600
WIRE 3552 1616 3552 1600
WIRE 4928 1616 4928 1600
WIRE 6480 1616 6480 1600
WIRE 4496 1712 4464 1712
WIRE 7584 1712 7552 1712
WIRE -64 1728 -96 1728
WIRE 496 1728 464 1728
WIRE 1264 1728 1232 1728
WIRE 1824 1728 1792 1728
WIRE 2432 1728 2400 1728
WIRE 3200 1728 3168 1728
WIRE 3808 1728 3776 1728
WIRE 5328 1728 5296 1728
WIRE 6080 1728 6048 1728
WIRE 6880 1728 6848 1728
WIRE -304 1776 -320 1776
WIRE -96 1776 -96 1728
WIRE -96 1776 -144 1776
WIRE -80 1776 -96 1776
WIRE 32 1776 -16 1776
WIRE 80 1776 32 1776
WIRE 256 1776 144 1776
WIRE 464 1776 464 1728
WIRE 464 1776 352 1776
WIRE 480 1776 464 1776
WIRE 560 1776 544 1776
WIRE 864 1776 848 1776
WIRE 1232 1776 1232 1728
WIRE 1232 1776 1136 1776
WIRE 1248 1776 1232 1776
WIRE 1360 1776 1312 1776
WIRE 1408 1776 1360 1776
WIRE 1584 1776 1472 1776
WIRE 1792 1776 1792 1728
WIRE 1792 1776 1680 1776
WIRE 1808 1776 1792 1776
WIRE 1888 1776 1872 1776
WIRE 2192 1776 2176 1776
WIRE 2400 1776 2400 1728
WIRE 2400 1776 2352 1776
WIRE 2416 1776 2400 1776
WIRE 2528 1776 2480 1776
WIRE 2576 1776 2528 1776
WIRE 2752 1776 2640 1776
WIRE 3168 1776 3168 1728
WIRE 3168 1776 2960 1776
WIRE 3184 1776 3168 1776
WIRE 3264 1776 3248 1776
WIRE 3568 1776 3552 1776
WIRE 3776 1776 3776 1728
WIRE 3776 1776 3728 1776
WIRE 3792 1776 3776 1776
WIRE 3904 1776 3856 1776
WIRE 3952 1776 3904 1776
WIRE 4112 1776 4016 1776
WIRE 4352 1776 4272 1776
WIRE 4464 1776 4464 1712
WIRE 4464 1776 4448 1776
WIRE 4480 1776 4464 1776
WIRE 4560 1776 4544 1776
WIRE 4592 1776 4560 1776
WIRE 4928 1776 4912 1776
WIRE 5296 1776 5296 1728
WIRE 5296 1776 5200 1776
WIRE 5312 1776 5296 1776
WIRE 5424 1776 5376 1776
WIRE 5472 1776 5424 1776
WIRE 5648 1776 5536 1776
WIRE 6048 1776 6048 1728
WIRE 6048 1776 5856 1776
WIRE 6064 1776 6048 1776
WIRE 6144 1776 6128 1776
WIRE 6480 1776 6464 1776
WIRE 6848 1776 6848 1728
WIRE 6848 1776 6752 1776
WIRE 6864 1776 6848 1776
WIRE 6976 1776 6928 1776
WIRE 7024 1776 6976 1776
WIRE 7200 1776 7088 1776
WIRE 7440 1776 7360 1776
WIRE 7552 1776 7552 1712
WIRE 7552 1776 7536 1776
WIRE 7568 1776 7552 1776
WIRE 7648 1776 7632 1776
WIRE 7680 1776 7648 1776
WIRE 4144 1856 4144 1808
WIRE 4560 1856 4560 1776
WIRE 4560 1856 4144 1856
WIRE 7232 1856 7232 1808
WIRE 7648 1856 7648 1776
WIRE 7648 1856 7232 1856
WIRE -272 1888 -272 1808
WIRE 32 1888 32 1776
WIRE 32 1888 -272 1888
WIRE 896 1888 896 1808
WIRE 1360 1888 1360 1776
WIRE 1360 1888 896 1888
WIRE 2224 1888 2224 1808
WIRE 2528 1888 2528 1776
WIRE 2528 1888 2224 1888
WIRE 3600 1888 3600 1808
WIRE 3904 1888 3904 1776
WIRE 3904 1888 3600 1888
WIRE 4960 1888 4960 1808
WIRE 5424 1888 5424 1776
WIRE 5424 1888 4960 1888
WIRE 6512 1888 6512 1808
WIRE 6976 1888 6976 1776
WIRE 6976 1888 6512 1888
WIRE -240 1984 -320 1984
WIRE -64 1984 -144 1984
WIRE 80 1984 0 1984
WIRE 256 1984 144 1984
WIRE 416 1984 352 1984
WIRE 544 1984 480 1984
WIRE 928 1984 864 1984
WIRE 1280 1984 1136 1984
WIRE 1408 1984 1344 1984
WIRE 1584 1984 1472 1984
WIRE 1744 1984 1680 1984
WIRE 1872 1984 1808 1984
WIRE 2256 1984 2176 1984
WIRE 2464 1984 2352 1984
WIRE 2576 1984 2528 1984
WIRE 2752 1984 2640 1984
WIRE 3104 1984 2960 1984
WIRE 3248 1984 3168 1984
WIRE 3632 1984 3552 1984
WIRE 3824 1984 3728 1984
WIRE 3952 1984 3888 1984
WIRE 4080 1984 4016 1984
WIRE 4544 1984 4288 1984
WIRE 4992 1984 4928 1984
WIRE 5344 1984 5200 1984
WIRE 5472 1984 5408 1984
WIRE 5648 1984 5536 1984
WIRE 6000 1984 5856 1984
WIRE 6128 1984 6064 1984
WIRE 6544 1984 6480 1984
WIRE 6896 1984 6752 1984
WIRE 7024 1984 6960 1984
WIRE 7136 1984 7088 1984
WIRE 7616 1984 7344 1984
WIRE 752 2112 752 416
WIRE 2080 2112 2080 416
WIRE 3472 2112 3472 416
WIRE 4816 2112 4816 416
WIRE 6368 2112 6368 416
FLAG -272 368 0
FLAG -320 512 VT
FLAG 544 512 VR_BT-BR
FLAG -320 1616 0
FLAG -272 272 VT
FLAG -320 704 0
FLAG -320 1104 VT
FLAG -320 1424 VT
FLAG -320 1984 VT
FLAG 544 1104 VR_BT-BR_ETN
FLAG 528 1424 VR_BT-BR_AC
FLAG 544 1984 VR_BT-BR_ATN
FLAG 864 512 VT
FLAG 1872 512 VR_SRT-BR
FLAG 864 704 0
FLAG 752 2112 0
FLAG 864 1616 0
FLAG 864 1424 VT
FLAG 1872 1424 VR_SRT-BR_AC
FLAG 864 1984 VT
FLAG 1872 1984 VR_SRT-BR_ATN
FLAG 2176 512 VT
FLAG 3248 512 VR_BT-SRR
FLAG 2176 704 0
FLAG 2080 2112 0
FLAG 3552 512 VT
FLAG 4512 512 VR_BT-PRR
FLAG 3552 704 0
FLAG 3472 2112 0
FLAG 2176 1616 0
FLAG 2176 1424 VT
FLAG 3248 1424 VR_BT-SRR_AC
FLAG 2176 1984 VT
FLAG 3248 1984 VR_BT-SRR_ATN
FLAG 3552 1616 0
FLAG 3552 1424 VT
FLAG 4512 1424 VR_BT-PRR_AC
FLAG 3552 1984 VT
FLAG 4608 1984 VR_BT-PRR_ATN
FLAG -320 848 VT
FLAG 560 848 VR_BT-BR_ET
FLAG 848 848 VT
FLAG 1888 848 VR_SRT-BR_ET
FLAG 2176 848 VT
FLAG 3264 848 VR_BT-SRR_ET
FLAG 3552 848 VT
FLAG 4592 848 VR_BT-PRR_ET
FLAG 4816 2112 0
FLAG 4928 512 VT
FLAG 6128 512 VR_SRT-SRR
FLAG 4928 704 0
FLAG 4928 1616 0
FLAG 4928 1424 VT
FLAG 6128 1424 VR_SRT-SRR_AC
FLAG 4928 1984 VT
FLAG 6128 1984 VR_SRT-SRR_ATN
FLAG 4912 848 VT
FLAG 6144 848 VR_SRT-SRR_ET
FLAG 6368 2112 0
FLAG 6480 512 VT
FLAG 7680 512 VR_SRT-PRR
FLAG 6480 704 0
FLAG 6480 1616 0
FLAG 6480 1424 VT
FLAG 7680 1424 VR_SRT-PRR_AC
FLAG 6480 1984 VT
FLAG 7680 1984 VR_SRT-PRR_ATN
FLAG 6464 848 VT
FLAG 7680 848 VR_SRT-PRR_ET
FLAG -64 800 IT_BT-BR_ET
FLAG 496 800 IR_BT-BR_ET
FLAG 1264 800 IT_SRT-BR_ET
FLAG 1824 800 IR_SRT-BR_ET
FLAG 2432 800 IT_BT-SRR_ET
FLAG 3200 800 IR_BT-SRR_ET
FLAG 3808 800 IT_BT-PRR_ET
FLAG 4496 784 IR_BT-PRR_ET
FLAG 5328 800 IT_SRT-SRR_ET
FLAG 6080 800 IR_SRT-SRR_ET
FLAG 6880 800 IT_SRT-PRR_ET
FLAG 7584 784 IR_SRT-PRR_ET
FLAG -320 1776 VT
FLAG 560 1776 VR_BT-BR_AT
FLAG -64 1728 IT_BT-BR_AT
FLAG 496 1728 IR_BT-BR_AT
FLAG 848 1776 VT
FLAG 1888 1776 VR_SRT-BR_AT
FLAG 1264 1728 IT_SRT-BR_AT
FLAG 1824 1728 IR_SRT-BR_AT
FLAG 2176 1776 VT
FLAG 3264 1776 VR_BT-SRR_AT
FLAG 2432 1728 IT_BT-SRR_AT
FLAG 3200 1728 IR_BT-SRR_AT
FLAG 3552 1776 VT
FLAG 4592 1776 VR_BT-PRR_AT
FLAG 3808 1728 IT_BT-PRR_AT
FLAG 4496 1712 IR_BT-PRR_AT
FLAG 4912 1776 VT
FLAG 6144 1776 VR_SRT-SRR_AT
FLAG 5328 1728 IT_SRT-SRR_AT
FLAG 6080 1728 IR_SRT-SRR_AT
FLAG 6464 1776 VT
FLAG 7680 1776 VR_SRT-PRR_AT
FLAG 6880 1728 IT_SRT-PRR_AT
FLAG 7584 1712 IR_SRT-PRR_AT
SYMBOL voltage -272 272 R0
WINDOW 123 24 44 Left 2
WINDOW 39 0 0 Left 2
WINDOW 3 22 94 Left 2
SYMATTR Value2 AC 1
SYMATTR Value SINE(0 1 100k)
SYMATTR InstName V1
SYMBOL ind2 16 544 R0
SYMATTR InstName Lm1
SYMATTR Value {Lm1}
SYMATTR Type ind
SYMATTR SpiceLine Rser=0
SYMBOL ind2 224 544 M0
SYMATTR InstName Lm2
SYMATTR Value {Lm2}
SYMATTR Type ind
SYMATTR SpiceLine Rser=0
SYMBOL res 496 544 R0
SYMATTR InstName Rl2
SYMATTR Value {Rl}
SYMBOL ind -80 528 R270
WINDOW 0 32 56 VTop 2
WINDOW 3 5 56 VBottom 2
SYMATTR InstName Ll1
SYMATTR Value {Ll1}
SYMATTR SpiceLine Rser=0
SYMBOL res -160 528 R270
WINDOW 0 32 56 VTop 2
WINDOW 3 0 56 VBottom 2
SYMATTR InstName Rs1
SYMATTR Value {Rs1}
SYMBOL ind 208 528 R270
WINDOW 0 32 56 VTop 2
WINDOW 3 5 56 VBottom 2
SYMATTR InstName Ll2
SYMATTR Value {Ll2}
SYMATTR SpiceLine Rser=0
SYMBOL res 288 528 R270
WINDOW 0 32 56 VTop 2
WINDOW 3 0 56 VBottom 2
SYMATTR InstName Rs2
SYMATTR Value {Rs2}
SYMBOL LTspiceControlLibrary\\TransferFunctions\\LaggedDerivative -224 2016 R0
WINDOW 38 0 -66 Left 2
SYMATTR Value i=1 T={T1}
SYMATTR InstName U1
SYMBOL LTspiceControlLibrary\\TransferFunctions\\1stOrderLag 272 2016 R0
WINDOW 38 0 -66 Left 2
SYMATTR Value K=1 T={T2}
SYMATTR InstName U2
SYMBOL LTspiceControlLibrary\\TransferFunctions\\Proportional -48 2016 R0
SYMATTR Value K={k12}
SYMATTR InstName U3
SYMBOL LTspiceControlLibrary\\TransferFunctions\\Proportional 432 2016 R0
SYMATTR Value K={Rl/(Rs2+Rl)}
SYMATTR InstName U7
SYMBOL LTspiceControlLibrary\\TransferFunctions\\Proportional 96 2016 R0
SYMATTR Value K={1/a12}
SYMATTR InstName U8
SYMBOL ind2 0 1456 R0
SYMATTR InstName Lm5
SYMATTR Value {Lm1}
SYMATTR Type ind
SYMATTR SpiceLine Rser=0
SYMBOL res 480 1456 R0
SYMATTR InstName Rl6
SYMATTR Value {Rl}
SYMBOL ind -96 1440 R270
WINDOW 0 32 56 VTop 2
WINDOW 3 5 56 VBottom 2
SYMATTR InstName Ll5
SYMATTR Value {Ll1}
SYMATTR SpiceLine Rser=0
SYMBOL res -176 1440 R270
WINDOW 0 32 56 VTop 2
WINDOW 3 0 56 VBottom 2
SYMATTR InstName Rs5
SYMATTR Value {Rs1}
SYMBOL ind 208 1440 R270
WINDOW 0 32 56 VTop 2
WINDOW 3 5 56 VBottom 2
SYMATTR InstName Ll6
SYMATTR Value {Lsc2}
SYMATTR SpiceLine Rser=0
SYMBOL res 288 1440 R270
WINDOW 0 32 56 VTop 2
WINDOW 3 0 56 VBottom 2
SYMATTR InstName Rs6
SYMATTR Value {Rs2}
SYMBOL e 160 1456 R0
SYMATTR InstName E5
SYMATTR Value {1/a12}
SYMBOL ind2 1344 544 R0
SYMATTR InstName Lm7
SYMATTR Value {Lm1}
SYMATTR Type ind
SYMATTR SpiceLine Rser=0
SYMBOL ind2 1552 544 M0
SYMATTR InstName Lm8
SYMATTR Value {Lm2}
SYMATTR Type ind
SYMATTR SpiceLine Rser=0
SYMBOL ind 1248 528 R270
WINDOW 0 32 56 VTop 2
WINDOW 3 5 56 VBottom 2
SYMATTR InstName Ll7
SYMATTR Value {Ll1}
SYMATTR SpiceLine Rser=0
SYMBOL res 1168 528 R270
WINDOW 0 32 56 VTop 2
WINDOW 3 0 56 VBottom 2
SYMATTR InstName Rs7
SYMATTR Value {Rs1}
SYMBOL ind 1536 528 R270
WINDOW 0 32 56 VTop 2
WINDOW 3 5 56 VBottom 2
SYMATTR InstName Ll8
SYMATTR Value {Ll2}
SYMATTR SpiceLine Rser=0
SYMBOL res 1616 528 R270
WINDOW 0 32 56 VTop 2
WINDOW 3 0 56 VBottom 2
SYMATTR InstName Rs8
SYMATTR Value {Rs2}
SYMBOL cap 1056 496 R90
WINDOW 0 0 32 VBottom 2
WINDOW 3 32 32 VTop 2
SYMATTR InstName Cr7
SYMATTR Value {Cr1}
SYMBOL LTspiceControlLibrary\\TransferFunctions\\2ndOrderBandPassFilter -272 1136 R0
WINDOW 38 0 -66 Left 2
WINDOW 123 0 28 Left 2
SYMATTR Value2 z={1/2*sqrt(1/(1-k12**2))*(b12/a12+a12/b12)}
SYMATTR Value K=1 w={1/sqrt(T1*T2)}
SYMATTR InstName U11
SYMBOL LTspiceControlLibrary\\TransferFunctions\\Proportional -16 1136 R0
SYMATTR Value K={k12}
SYMATTR InstName U12
SYMBOL LTspiceControlLibrary\\TransferFunctions\\Proportional 96 1136 R0
SYMATTR Value K={1/a12}
SYMATTR InstName U13
SYMBOL LTspiceControlLibrary\\TransferFunctions\\Proportional 256 1136 R0
SYMATTR Value K={(Rl*a12**2)/(Rs1+(Rs2+Rl)*a12**2)}
SYMATTR InstName U14
SYMBOL res 1824 544 R0
SYMATTR InstName Rl8
SYMATTR Value {Rl}
SYMBOL ind2 1328 1456 R0
SYMATTR InstName Lm11
SYMATTR Value {Lm1}
SYMATTR Type ind
SYMATTR SpiceLine Rser=0
SYMBOL res 1824 1456 R0
SYMATTR InstName Rl12
SYMATTR Value {Rl}
SYMBOL ind 1232 1440 R270
WINDOW 0 32 56 VTop 2
WINDOW 3 5 56 VBottom 2
SYMATTR InstName Ll11
SYMATTR Value {Ll1}
SYMATTR SpiceLine Rser=0
SYMBOL res 1152 1440 R270
WINDOW 0 32 56 VTop 2
WINDOW 3 0 56 VBottom 2
SYMATTR InstName Rs11
SYMATTR Value {Rs1}
SYMBOL ind 1536 1440 R270
WINDOW 0 32 56 VTop 2
WINDOW 3 5 56 VBottom 2
SYMATTR InstName Ll12
SYMATTR Value {Lsc2}
SYMATTR SpiceLine Rser=0
SYMBOL res 1616 1440 R270
WINDOW 0 32 56 VTop 2
WINDOW 3 0 56 VBottom 2
SYMATTR InstName Rs12
SYMATTR Value {Rs2}
SYMBOL e 1488 1456 R0
SYMATTR InstName E11
SYMATTR Value {1/a12}
SYMBOL cap 1056 1408 R90
WINDOW 0 0 32 VBottom 2
WINDOW 3 32 32 VTop 2
SYMATTR InstName Cr11
SYMATTR Value {Cr1}
SYMBOL LTspiceControlLibrary\\TransferFunctions\\Proportional 1760 2016 R0
SYMATTR Value K={Rl/(Rs2+Rl)}
SYMATTR InstName U9
SYMBOL LTspiceControlLibrary\\TransferFunctions\\Proportional 1424 2016 R0
SYMATTR Value K={1/a12}
SYMATTR InstName U10
SYMBOL LTspiceControlLibrary\\TransferFunctions\\2ndOrderHighPassFilter 944 2016 R0
WINDOW 38 0 -66 Left 2
WINDOW 123 0 28 Left 2
SYMATTR Value2 z={1/2*Rs1*sqrt(Cr1/L1)}
SYMATTR Value K=1 w={1/sqrt(L1*Cr1)}
SYMATTR InstName U15
SYMBOL LTspiceControlLibrary\\TransferFunctions\\1stOrderLag 1600 2016 R0
WINDOW 38 0 -66 Left 2
SYMATTR Value K=1 T={T2}
SYMATTR InstName U4
SYMBOL ind2 2512 544 R0
SYMATTR InstName Lm13
SYMATTR Value {Lm1}
SYMATTR Type ind
SYMATTR SpiceLine Rser=0
SYMBOL ind2 2720 544 M0
SYMATTR InstName Lm14
SYMATTR Value {Lm2}
SYMATTR Type ind
SYMATTR SpiceLine Rser=0
SYMBOL ind 2416 528 R270
WINDOW 0 32 56 VTop 2
WINDOW 3 5 56 VBottom 2
SYMATTR InstName Ll13
SYMATTR Value {Ll1}
SYMATTR SpiceLine Rser=0
SYMBOL res 2336 528 R270
WINDOW 0 32 56 VTop 2
WINDOW 3 0 56 VBottom 2
SYMATTR InstName Rs13
SYMATTR Value {Rs1}
SYMBOL ind 2704 528 R270
WINDOW 0 32 56 VTop 2
WINDOW 3 5 56 VBottom 2
SYMATTR InstName Ll14
SYMATTR Value {Ll2}
SYMATTR SpiceLine Rser=0
SYMBOL res 2784 528 R270
WINDOW 0 32 56 VTop 2
WINDOW 3 0 56 VBottom 2
SYMATTR InstName Rs14
SYMATTR Value {Rs2}
SYMBOL cap 2992 528 R270
WINDOW 0 32 32 VTop 2
WINDOW 3 0 32 VBottom 2
SYMATTR InstName Cr14
SYMATTR Value {Cr2}
SYMBOL res 3200 544 R0
SYMATTR InstName Rl14
SYMATTR Value {Rl}
SYMBOL ind2 3888 544 R0
SYMATTR InstName Lm19
SYMATTR Value {Lm1}
SYMATTR Type ind
SYMATTR SpiceLine Rser=0
SYMBOL ind2 4096 544 M0
SYMATTR InstName Lm20
SYMATTR Value {Lm2}
SYMATTR Type ind
SYMATTR SpiceLine Rser=0
SYMBOL ind 3792 528 R270
WINDOW 0 32 56 VTop 2
WINDOW 3 5 56 VBottom 2
SYMATTR InstName Ll19
SYMATTR Value {Ll1}
SYMATTR SpiceLine Rser=0
SYMBOL res 3712 528 R270
WINDOW 0 32 56 VTop 2
WINDOW 3 0 56 VBottom 2
SYMATTR InstName Rs19
SYMATTR Value {Rs1}
SYMBOL ind 4080 528 R270
WINDOW 0 32 56 VTop 2
WINDOW 3 5 56 VBottom 2
SYMATTR InstName Ll20
SYMATTR Value {Ll2}
SYMATTR SpiceLine Rser=0
SYMBOL res 4160 528 R270
WINDOW 0 32 56 VTop 2
WINDOW 3 0 56 VBottom 2
SYMATTR InstName Rs20
SYMATTR Value {Rs2}
SYMBOL cap 4352 576 R0
SYMATTR InstName Cr20
SYMATTR Value {Cr2}
SYMBOL res 4464 544 R0
SYMATTR InstName Rl20
SYMATTR Value {Rl}
SYMBOL ind2 2512 1456 R0
SYMATTR InstName Lm17
SYMATTR Value {Lm1}
SYMATTR Type ind
SYMATTR SpiceLine Rser=0
SYMBOL res 3200 1456 R0
SYMATTR InstName Rl18
SYMATTR Value {Rl}
SYMBOL ind 2416 1440 R270
WINDOW 0 32 56 VTop 2
WINDOW 3 5 56 VBottom 2
SYMATTR InstName Ll17
SYMATTR Value {Ll1}
SYMATTR SpiceLine Rser=0
SYMBOL res 2336 1440 R270
WINDOW 0 32 56 VTop 2
WINDOW 3 0 56 VBottom 2
SYMATTR InstName Rs17
SYMATTR Value {Rs1}
SYMBOL ind 2704 1440 R270
WINDOW 0 32 56 VTop 2
WINDOW 3 5 56 VBottom 2
SYMATTR InstName Ll18
SYMATTR Value {Lsc2}
SYMATTR SpiceLine Rser=0
SYMBOL res 2784 1440 R270
WINDOW 0 32 56 VTop 2
WINDOW 3 0 56 VBottom 2
SYMATTR InstName Rs18
SYMATTR Value {Rs2}
SYMBOL e 2672 1456 R0
SYMATTR InstName E17
SYMATTR Value {1/a12}
SYMBOL LTspiceControlLibrary\\TransferFunctions\\Proportional 3120 2016 R0
SYMATTR Value K={Rl/(Rs2+Rl)}
SYMATTR InstName U16
SYMBOL LTspiceControlLibrary\\TransferFunctions\\Proportional 2592 2016 R0
SYMATTR Value K={1/a12}
SYMATTR InstName U17
SYMBOL cap 2992 1440 R270
WINDOW 0 32 32 VTop 2
WINDOW 3 0 32 VBottom 2
SYMATTR InstName Cr18
SYMATTR Value {Cr2}
SYMBOL LTspiceControlLibrary\\TransferFunctions\\Proportional 1296 2016 R0
SYMATTR Value K={k12}
SYMATTR InstName U5
SYMBOL LTspiceControlLibrary\\TransferFunctions\\Proportional 2480 2016 R0
SYMATTR Value K={k12}
SYMATTR InstName U6
SYMBOL LTspiceControlLibrary\\TransferFunctions\\LaggedDerivative 2272 2016 R0
WINDOW 38 0 -66 Left 2
SYMATTR Value i=1 T={T1}
SYMATTR InstName U18
SYMBOL LTspiceControlLibrary\\TransferFunctions\\2ndOrderBandPassFilter 2768 2016 R0
WINDOW 38 0 -66 Left 2
WINDOW 123 0 28 Left 2
SYMATTR Value2 z={1/2*(Rs2+Rl)*sqrt(Cr2/Lsc2)}
SYMATTR Value K=1 w={1/sqrt(Lsc2*Cr2)}
SYMATTR InstName U19
SYMBOL ind2 3888 1456 R0
SYMATTR InstName Lm23
SYMATTR Value {Lm1}
SYMATTR Type ind
SYMATTR SpiceLine Rser=0
SYMBOL res 4464 1456 R0
SYMATTR InstName Rl24
SYMATTR Value {Rl}
SYMBOL ind 3792 1440 R270
WINDOW 0 32 56 VTop 2
WINDOW 3 5 56 VBottom 2
SYMATTR InstName Ll23
SYMATTR Value {Ll1}
SYMATTR SpiceLine Rser=0
SYMBOL res 3712 1440 R270
WINDOW 0 32 56 VTop 2
WINDOW 3 0 56 VBottom 2
SYMATTR InstName Rs23
SYMATTR Value {Rs1}
SYMBOL ind 4080 1440 R270
WINDOW 0 32 56 VTop 2
WINDOW 3 5 56 VBottom 2
SYMATTR InstName Ll24
SYMATTR Value {Lsc2}
SYMATTR SpiceLine Rser=0
SYMBOL res 4160 1440 R270
WINDOW 0 32 56 VTop 2
WINDOW 3 0 56 VBottom 2
SYMATTR InstName Rs24
SYMATTR Value {Rs2}
SYMBOL e 4048 1456 R0
SYMATTR InstName E23
SYMATTR Value {1/a12}
SYMBOL LTspiceControlLibrary\\TransferFunctions\\Proportional 4560 2016 R0
SYMATTR Value K={Rl/(Rs2+Rl)}
SYMATTR InstName U20
SYMBOL LTspiceControlLibrary\\TransferFunctions\\Proportional 3968 2016 R0
SYMATTR Value K={1/a12}
SYMATTR InstName U21
SYMBOL cap 4352 1488 R0
SYMATTR InstName Cr24
SYMATTR Value {Cr2}
SYMBOL LTspiceControlLibrary\\TransferFunctions\\Proportional 3840 2016 R0
SYMATTR Value K={k12}
SYMATTR InstName U22
SYMBOL LTspiceControlLibrary\\TransferFunctions\\LaggedDerivative 3648 2016 R0
WINDOW 38 0 -66 Left 2
SYMATTR Value i=1 T={T1}
SYMATTR InstName U23
SYMBOL LTspiceControlLibrary\\TransferFunctions\\2ndOrderLag 4096 2016 R0
WINDOW 38 0 -66 Left 2
WINDOW 123 0 28 Left 2
SYMATTR Value2 z={1/2*sqrt(Rl/(Rs2+Rl))*(Cr2*Rs2+Lsc2/Rl)/sqrt(Cr2*Lsc2)}
SYMATTR Value K=1 w={1/sqrt(Lsc2*Cr2)*sqrt((Rs2+Rl)/Rl)}
SYMATTR InstName U25
SYMBOL LTspiceControlLibrary\\TransferFunctions\\2ndOrderBandPassFilter 944 880 R0
WINDOW 38 0 -66 Left 2
WINDOW 123 0 28 Left 2
SYMATTR Value2 z={1/2*Rs1*sqrt(Cr1/Ll1)}
SYMATTR Value K={1/Rs1} w={1/sqrt(Ll1*Cr1)}
SYMATTR InstName U34
SYMBOL LTspiceControlLibrary\\TransferFunctions\\1stOrderLag -224 880 R0
WINDOW 38 0 -66 Left 2
WINDOW 123 0 28 Left 2
SYMATTR Value2 T={Ll1/Rs1}
SYMATTR Value K={1/Rs1}
SYMATTR InstName U57
SYMBOL LTspiceControlLibrary\\TransferFunctions\\Proportional 96 880 R0
SYMATTR Value K={1/a12}
SYMATTR InstName U59
SYMBOL LTspiceControlLibrary\\TransferFunctions\\Proportional 496 880 R0
SYMATTR Value K={Rl}
SYMATTR InstName U60
SYMBOL LTspiceControlLibrary\\Math\\Operands\\sub -288 880 R0
SYMATTR InstName U65
SYMBOL LTspiceControlLibrary\\TransferFunctions\\Proportional 128 992 M0
WINDOW 3 30 0 Right 2
SYMATTR Value K={a12}
SYMATTR InstName U66
SYMBOL LTspiceControlLibrary\\Math\\Operands\\add 48 928 R180
SYMATTR InstName U67
SYMBOL LTspiceControlLibrary\\TransferFunctions\\1stOrderLag 272 880 R0
WINDOW 38 0 -66 Left 2
WINDOW 123 0 28 Left 2
SYMATTR Value2 T={Ll2/(Rs2+Rl)}
SYMATTR Value K={1/(Rs2+Rl)}
SYMATTR InstName U61
SYMBOL LTspiceControlLibrary\\Math\\Operands\\add 192 880 R0
SYMATTR InstName U63
SYMBOL LTspiceControlLibrary\\TransferFunctions\\Derivative 304 992 M0
WINDOW 3 32 0 Right 2
SYMATTR Value T={-Lm2}
SYMATTR InstName U62
SYMBOL LTspiceControlLibrary\\TransferFunctions\\Derivative -64 880 R0
SYMATTR Value T={Lm1}
SYMATTR InstName U64
SYMBOL LTspiceControlLibrary\\TransferFunctions\\Proportional 1424 880 R0
SYMATTR Value K={1/a12}
SYMATTR InstName U26
SYMBOL LTspiceControlLibrary\\TransferFunctions\\Proportional 1824 880 R0
SYMATTR Value K={Rl}
SYMATTR InstName U27
SYMBOL LTspiceControlLibrary\\Math\\Operands\\sub 880 880 R0
SYMATTR InstName U28
SYMBOL LTspiceControlLibrary\\TransferFunctions\\Proportional 1456 992 M0
WINDOW 3 30 0 Right 2
SYMATTR Value K={a12}
SYMATTR InstName U29
SYMBOL LTspiceControlLibrary\\Math\\Operands\\add 1376 928 R180
SYMATTR InstName U30
SYMBOL LTspiceControlLibrary\\TransferFunctions\\1stOrderLag 1600 880 R0
WINDOW 38 0 -66 Left 2
WINDOW 123 0 28 Left 2
SYMATTR Value2 T={Ll2/(Rs2+Rl)}
SYMATTR Value K={1/(Rs2+Rl)}
SYMATTR InstName U31
SYMBOL LTspiceControlLibrary\\Math\\Operands\\add 1520 880 R0
SYMATTR InstName U32
SYMBOL LTspiceControlLibrary\\TransferFunctions\\Derivative 1632 992 M0
WINDOW 3 32 0 Right 2
SYMATTR Value T={-Lm2}
SYMATTR InstName U33
SYMBOL LTspiceControlLibrary\\TransferFunctions\\Derivative 1264 880 R0
SYMATTR Value T={Lm1}
SYMATTR InstName U35
SYMBOL LTspiceControlLibrary\\TransferFunctions\\1stOrderLag 2272 880 R0
WINDOW 38 0 -66 Left 2
WINDOW 123 0 28 Left 2
SYMATTR Value2 T={Ll1/Rs1}
SYMATTR Value K={1/Rs1}
SYMATTR InstName U24
SYMBOL LTspiceControlLibrary\\TransferFunctions\\Proportional 2592 880 R0
SYMATTR Value K={1/a12}
SYMATTR InstName U36
SYMBOL LTspiceControlLibrary\\TransferFunctions\\Proportional 3200 880 R0
SYMATTR Value K={Rl}
SYMATTR InstName U37
SYMBOL LTspiceControlLibrary\\Math\\Operands\\sub 2208 880 R0
SYMATTR InstName U38
SYMBOL LTspiceControlLibrary\\TransferFunctions\\Proportional 2624 992 M0
WINDOW 3 30 0 Right 2
SYMATTR Value K={a12}
SYMATTR InstName U39
SYMBOL LTspiceControlLibrary\\Math\\Operands\\add 2544 928 R180
SYMATTR InstName U40
SYMBOL LTspiceControlLibrary\\Math\\Operands\\add 2688 880 R0
SYMATTR InstName U42
SYMBOL LTspiceControlLibrary\\TransferFunctions\\Derivative 2800 992 M0
WINDOW 3 32 0 Right 2
SYMATTR Value T={-Lm2}
SYMATTR InstName U43
SYMBOL LTspiceControlLibrary\\TransferFunctions\\Derivative 2432 880 R0
SYMATTR Value T={Lm1}
SYMATTR InstName U44
SYMBOL LTspiceControlLibrary\\TransferFunctions\\2ndOrderBandPassFilter 2768 880 R0
WINDOW 38 0 -66 Left 2
WINDOW 123 0 28 Left 2
SYMATTR Value2 z={1/2*(Rs2+Rl)*sqrt(Cr2/Ll2)}
SYMATTR Value K={1/(Rs2+Rl)} w={1/sqrt(Ll2*Cr2)}
SYMATTR InstName U45
SYMBOL LTspiceControlLibrary\\TransferFunctions\\1stOrderLag 3648 880 R0
WINDOW 38 0 -66 Left 2
WINDOW 123 0 28 Left 2
SYMATTR Value2 T={Ll1/Rs1}
SYMATTR Value K={1/Rs1}
SYMATTR InstName U41
SYMBOL LTspiceControlLibrary\\TransferFunctions\\Proportional 3968 880 R0
SYMATTR Value K={1/a12}
SYMATTR InstName U46
SYMBOL LTspiceControlLibrary\\Math\\Operands\\sub 3584 880 R0
SYMATTR InstName U48
SYMBOL LTspiceControlLibrary\\TransferFunctions\\Proportional 4000 992 M0
WINDOW 3 30 0 Right 2
SYMATTR Value K={a12}
SYMATTR InstName U49
SYMBOL LTspiceControlLibrary\\Math\\Operands\\add 3920 928 R180
SYMATTR InstName U50
SYMBOL LTspiceControlLibrary\\Math\\Operands\\add 4064 880 R0
SYMATTR InstName U51