Version 4
SHEET 1 880 680
WIRE -672 -304 -688 -304
WIRE -576 -304 -592 -304
WIRE -496 -304 -512 -304
WIRE -912 -208 -1040 -208
WIRE -704 -208 -832 -208
WIRE -688 -208 -688 -304
WIRE -688 -208 -704 -208
WIRE -624 -208 -688 -208
WIRE -496 -208 -496 -304
WIRE -496 -208 -560 -208
WIRE -480 -208 -496 -208
WIRE -368 -208 -480 -208
WIRE -1040 -176 -1040 -208
WIRE -704 -160 -704 -208
WIRE -480 -160 -480 -208
WIRE -368 -160 -368 -208
WIRE -1040 -32 -1040 -96
WIRE -704 -32 -704 -80
WIRE -704 -32 -1040 -32
WIRE -480 -32 -480 -96
WIRE -480 -32 -704 -32
WIRE -368 -32 -368 -80
WIRE -368 -32 -480 -32
WIRE -1040 -16 -1040 -32
WIRE -1008 176 -1040 176
WIRE -944 176 -1008 176
WIRE -848 176 -880 176
WIRE -800 176 -848 176
WIRE -768 176 -800 176
WIRE -672 176 -704 176
WIRE -640 176 -672 176
WIRE -480 176 -576 176
WIRE -384 176 -480 176
WIRE -288 176 -320 176
WIRE -224 176 -288 176
WIRE -192 176 -224 176
WIRE -96 176 -128 176
WIRE -48 176 -96 176
WIRE 96 176 16 176
WIRE 144 176 96 176
WIRE 256 176 208 176
WIRE 272 176 256 176
WIRE -1040 208 -1040 176
WIRE -480 224 -496 224
WIRE -464 224 -480 224
WIRE -352 224 -352 208
WIRE -352 224 -368 224
WIRE 128 240 96 240
WIRE 176 240 176 208
WIRE 176 240 128 240
WIRE -800 256 -800 176
WIRE -768 256 -800 256
WIRE -672 256 -704 256
WIRE -608 256 -608 208
WIRE -608 256 -672 256
WIRE -224 256 -224 176
WIRE -192 256 -224 256
WIRE -96 256 -128 256
WIRE -16 256 -16 208
WIRE -16 256 -96 256
WIRE 96 256 96 240
WIRE -496 288 -496 224
FLAG -1040 -16 0
FLAG -752 -144 PWM
FLAG 256 176 PWM
FLAG 96 336 0
FLAG -752 -96 0
FLAG -368 -208 OUT
FLAG -1040 288 0
FLAG -912 208 OUT
FLAG -1008 176 VREF
FLAG -848 176 VERR
FLAG 128 240 CARRIER
FLAG -1040 -208 IN
FLAG -672 176 IREFP
FLAG -672 256 IREFI
FLAG -480 176 IREF
FLAG -288 176 IERR
FLAG -96 176 MREFP
FLAG -96 256 MREFI
FLAG 96 176 MREF
FLAG -496 368 0
FLAG -480 224 IL
SYMBOL voltage -1040 -192 R0
WINDOW 123 0 0 Left 2
WINDOW 39 0 0 Left 2
SYMATTR InstName V1
SYMATTR Value 10
SYMBOL cap -496 -160 R0
SYMATTR InstName C1
SYMATTR Value 100u
SYMBOL diode -624 -192 R270
WINDOW 0 32 32 VTop 2
WINDOW 3 0 32 VBottom 2
SYMATTR InstName D1
SYMBOL res -384 -176 R0
SYMATTR InstName R1
SYMATTR Value 100
SYMBOL ind -928 -192 R270
WINDOW 0 32 56 VTop 2
WINDOW 3 5 56 VBottom 2
SYMATTR InstName L1
SYMATTR Value 10m
SYMBOL sw -704 -64 M180
SYMATTR InstName S1
SYMBOL voltage -1040 192 R0
WINDOW 123 0 0 Left 2
WINDOW 39 0 0 Left 2
SYMATTR InstName V3
SYMATTR Value PULSE(10 20 0 5m)
SYMBOL Math\\Operands\\sub -928 208 R0
SYMATTR InstName U1
SYMBOL TransferFunctions\\Integral -752 288 R0
SYMATTR Value T=0.1
SYMATTR InstName U2
SYMBOL Math\\Operands\\nle 160 208 R0
SYMATTR InstName U4
SYMBOL TransferFunctions\\Proportional -752 208 R0
SYMATTR Value K=0.1
SYMATTR InstName U5
SYMBOL Math\\Operands\\add -624 208 R0
SYMATTR InstName U6
SYMBOL Math\\Operands\\sub -368 208 R0
SYMATTR InstName U7
SYMBOL TransferFunctions\\Integral -176 288 R0
SYMATTR Value T=0.1m
SYMATTR InstName U8
SYMBOL TransferFunctions\\Proportional -176 208 R0
SYMATTR Value K=10
SYMATTR InstName U9
SYMBOL Math\\Operands\\add -32 208 R0
SYMATTR InstName U10
SYMBOL bv -496 272 R0
SYMATTR InstName B1
SYMATTR Value V=I(L1)
SYMBOL TransferFunctions\\1stOrderLag -448 256 R0
SYMATTR Value K=1 T=0.1m
SYMATTR InstName U11
SYMBOL res -688 -288 R270
WINDOW 0 32 56 VTop 2
WINDOW 3 0 56 VBottom 2
SYMATTR InstName R2
SYMATTR Value 10k
SYMBOL cap -576 -288 R270
WINDOW 0 32 32 VTop 2
WINDOW 3 0 32 VBottom 2
SYMATTR InstName C2
SYMATTR Value 100p
SYMBOL Sources\\TriangleWaveVoltage 96 240 R0
SYMATTR InstName U3
SYMATTR Value V1=0 V2=1 Tperiod={1/10k} tratio=1
TEXT -1104 -520 Left 2 !.tran 0 100m 0 startup
TEXT -1104 -488 Left 2 !.model SW SW(Ron=1 Roff=1Meg Vt=0.5)
TEXT -1128 -376 Left 4 ;Circuit
TEXT -1120 72 Left 4 ;Controller
TEXT -1104 -448 Left 2 !.ic V(OUT)=10
TEXT -1048 120 Left 2 ;voltage controller
TEXT -520 120 Left 2 ;current controller
TEXT 56 120 Left 2 ;PWM generator
TEXT -1128 -568 Left 4 ;Config
TEXT -1168 -624 Left 5 ;Boost Converter
