Version 4
SHEET 1 1252 1212
WIRE 64 48 32 48
WIRE 176 48 144 48
WIRE 416 48 224 48
WIRE 528 48 416 48
WIRE 176 96 176 48
WIRE 224 96 224 48
WIRE 416 96 416 48
WIRE 528 96 528 48
WIRE 176 192 176 176
WIRE 224 192 224 176
WIRE 224 192 176 192
WIRE 224 224 224 192
WIRE 224 224 32 224
WIRE 416 224 416 160
WIRE 416 224 224 224
WIRE 528 224 528 176
WIRE 528 224 416 224
WIRE 32 240 32 224
WIRE 48 352 32 352
WIRE 128 352 112 352
WIRE 144 352 128 352
WIRE 224 352 208 352
WIRE 240 352 224 352
WIRE 320 352 304 352
WIRE 336 352 320 352
WIRE 416 352 400 352
WIRE 432 352 416 352
WIRE 544 352 496 352
WIRE 560 352 544 352
WIRE 128 448 32 448
WIRE 272 448 272 384
WIRE 272 448 256 448
WIRE 368 448 368 384
WIRE 416 448 368 448
WIRE 432 448 416 448
WIRE 544 448 544 352
WIRE 544 448 496 448
WIRE 272 464 272 448
WIRE 80 496 80 384
WIRE 224 496 80 496
WIRE 240 496 224 496
WIRE 544 496 544 448
WIRE 544 496 304 496
WIRE 48 576 32 576
WIRE 128 576 112 576
WIRE 144 576 128 576
WIRE 224 576 208 576
WIRE 240 576 224 576
WIRE 320 576 304 576
WIRE 336 576 320 576
WIRE 416 576 400 576
WIRE 432 576 416 576
WIRE 544 576 496 576
WIRE 560 576 544 576
WIRE 128 672 32 672
WIRE 272 672 272 608
WIRE 272 672 256 672
WIRE 368 672 368 608
WIRE 416 672 368 672
WIRE 432 672 416 672
WIRE 544 672 544 576
WIRE 544 672 496 672
WIRE 272 688 272 672
WIRE 80 720 80 608
WIRE 224 720 80 720
WIRE 240 720 224 720
WIRE 544 720 544 672
WIRE 544 720 304 720
WIRE 48 800 32 800
WIRE 224 800 112 800
WIRE 240 800 224 800
WIRE 544 800 304 800
WIRE 560 800 544 800
WIRE 416 848 368 848
WIRE 432 848 416 848
WIRE 544 848 544 800
WIRE 544 848 496 848
WIRE 128 864 32 864
WIRE 272 864 272 832
WIRE 272 864 256 864
WIRE 272 880 272 864
WIRE 368 880 368 848
WIRE 80 912 80 832
WIRE 128 912 80 912
WIRE 144 912 128 912
WIRE 224 912 208 912
WIRE 240 912 224 912
WIRE 320 912 304 912
WIRE 336 912 320 912
WIRE 416 912 400 912
WIRE 432 912 416 912
WIRE 544 912 544 848
WIRE 544 912 496 912
WIRE 48 1024 32 1024
WIRE 128 1024 112 1024
WIRE 144 1024 128 1024
WIRE 224 1024 208 1024
WIRE 240 1024 224 1024
WIRE 320 1024 304 1024
WIRE 400 1024 320 1024
WIRE 544 1024 496 1024
WIRE 560 1024 544 1024
WIRE 128 1120 32 1120
WIRE 272 1120 272 1056
WIRE 272 1120 256 1120
WIRE 272 1136 272 1120
WIRE 80 1168 80 1056
WIRE 224 1168 80 1168
WIRE 240 1168 224 1168
WIRE 544 1168 544 1024
WIRE 544 1168 304 1168
FLAG 528 48 OUT
FLAG 272 160 0
FLAG 272 112 m*
FLAG 32 240 0
FLAG 32 48 IN
FLAG 32 448 m*
FLAG 32 352 IN
FLAG 560 352 OUT_1
FLAG 224 352 il1_1
FLAG 416 352 ic1_1
FLAG 416 448 ir1_1
FLAG 128 352 vl1_1
FLAG 224 496 vt1_1
FLAG 320 352 it2_1
FLAG 32 1120 m*
FLAG 32 1024 IN
FLAG 560 1024 OUT_4
FLAG 224 1024 il1_4
FLAG 128 1024 vl1_4
FLAG 224 1168 vt1_4
FLAG 320 1024 it2_4
FLAG 32 672 m*
FLAG 32 576 IN
FLAG 560 576 OUT_2
FLAG 224 576 il1_2
FLAG 416 672 ic1_2
FLAG 416 576 ir1_2
FLAG 128 576 vl1_2
FLAG 224 720 vt1_2
FLAG 320 576 it2_2
FLAG 32 864 m*
FLAG 32 800 IN
FLAG 560 800 OUT_3
FLAG 224 912 il1_3
FLAG 416 912 ic1_3
FLAG 416 848 ir1_3
FLAG 128 912 vl1_3
FLAG 224 800 vt1_3
FLAG 320 912 it2_3
FLAG -96 176 0
FLAG -208 176 0
FLAG -96 96 m*
FLAG -208 96 IN
SYMBOL cap 400 96 R0
SYMATTR InstName C1
SYMATTR Value {C1}
SYMBOL res 512 80 R0
SYMATTR InstName R1
SYMATTR Value {R1}
SYMBOL ind 48 64 R270
WINDOW 0 32 56 VTop 2
WINDOW 3 5 56 VBottom 2
SYMATTR InstName L1
SYMATTR Value {L1}
SYMBOL LTspiceControlLibrary\\Sources\\DCTransformer 224 80 M0
WINDOW 0 -24 15 Right 2
WINDOW 3 -25 97 Right 2
SYMATTR InstName U1
SYMATTR Value Vc1=1 Vc2=0
SYMBOL LTspiceControlLibrary\\Math\\Operands\\neg 144 480 R0
SYMATTR InstName U2
SYMBOL LTspiceControlLibrary\\Math\\Operands\\inc 208 480 R0
SYMATTR InstName U3
SYMBOL LTspiceControlLibrary\\Math\\Operands\\mul 288 464 R180
SYMATTR InstName U4
SYMBOL LTspiceControlLibrary\\Math\\Operands\\sub 64 384 R0
SYMATTR InstName U5
SYMBOL LTspiceControlLibrary\\TransferFunctions\\Integral 160 384 R0
WINDOW 123 0 28 Left 2
SYMATTR Value2 Y0={Il0}
SYMATTR Value T={L1}
SYMATTR InstName U6
SYMBOL LTspiceControlLibrary\\TransferFunctions\\Integral 448 384 R0
WINDOW 123 0 28 Left 2
SYMATTR Value2 Y0={Vc0}
SYMATTR Value T={C1}
SYMATTR InstName U7
SYMBOL LTspiceControlLibrary\\TransferFunctions\\Proportional 480 480 M0
WINDOW 3 32 0 Right 2
SYMATTR Value K={1/R1}
SYMATTR InstName U8
SYMBOL LTspiceControlLibrary\\Math\\Operands\\sub 352 384 R0
SYMATTR InstName U9
SYMBOL LTspiceControlLibrary\\Math\\Operands\\mul 256 384 R0
SYMATTR InstName U10
SYMBOL LTspiceControlLibrary\\Math\\Operands\\neg 144 1152 R0
SYMATTR InstName U11
SYMBOL LTspiceControlLibrary\\Math\\Operands\\inc 208 1152 R0
SYMATTR InstName U12
SYMBOL LTspiceControlLibrary\\Math\\Operands\\mul 288 1136 R180
SYMATTR InstName U13
SYMBOL LTspiceControlLibrary\\Math\\Operands\\sub 64 1056 R0
SYMATTR InstName U14
SYMBOL LTspiceControlLibrary\\TransferFunctions\\Integral 160 1056 R0
WINDOW 123 0 28 Left 2
SYMATTR Value2 Y0={Il0}
SYMATTR Value T={L1}
SYMATTR InstName U15
SYMBOL LTspiceControlLibrary\\Math\\Operands\\mul 256 1056 R0
SYMATTR InstName U16
SYMBOL LTspiceControlLibrary\\TransferFunctions\\1stOrderLag 416 1056 R0
WINDOW 38 0 -66 Left 2
SYMATTR Value K={R1} T={C1*R1}
SYMATTR InstName U17
SYMBOL LTspiceControlLibrary\\Math\\Operands\\neg 144 704 R0
SYMATTR InstName U18
SYMBOL LTspiceControlLibrary\\Math\\Operands\\inc 208 704 R0
SYMATTR InstName U19
SYMBOL LTspiceControlLibrary\\Math\\Operands\\mul 288 688 R180
SYMATTR InstName U20
SYMBOL LTspiceControlLibrary\\Math\\Operands\\sub 64 608 R0
SYMATTR InstName U21
SYMBOL LTspiceControlLibrary\\TransferFunctions\\Integral 160 608 R0
WINDOW 123 0 28 Left 2
SYMATTR Value2 Y0={Il0}
SYMATTR Value T={L1}
SYMATTR InstName U22
SYMBOL LTspiceControlLibrary\\Math\\Operands\\sub 352 608 R0
SYMATTR InstName U23
SYMBOL LTspiceControlLibrary\\Math\\Operands\\mul 256 608 R0
SYMATTR InstName U24
SYMBOL LTspiceControlLibrary\\TransferFunctions\\Derivative 480 704 M0
WINDOW 3 32 0 Right 2
SYMATTR Value T={C1}
SYMATTR InstName U25
SYMBOL LTspiceControlLibrary\\TransferFunctions\\Proportional 448 608 R0
SYMATTR Value K={R1}
SYMATTR InstName U26
SYMBOL LTspiceControlLibrary\\Math\\Operands\\neg 144 896 R0
SYMATTR InstName U27
SYMBOL LTspiceControlLibrary\\Math\\Operands\\inc 208 896 R0
SYMATTR InstName U28
SYMBOL LTspiceControlLibrary\\Math\\Operands\\sub 64 832 R0
SYMATTR InstName U29
SYMBOL LTspiceControlLibrary\\TransferFunctions\\Derivative 480 944 M0
WINDOW 3 32 0 Right 2
SYMATTR Value T={C1}
SYMATTR InstName U30
SYMBOL LTspiceControlLibrary\\Math\\Operands\\div 256 832 R0
SYMATTR InstName U31
SYMBOL LTspiceControlLibrary\\Math\\Operands\\div 288 880 R180
SYMATTR InstName U32
SYMBOL LTspiceControlLibrary\\TransferFunctions\\Derivative 192 944 M0
WINDOW 3 32 0 Right 2
SYMATTR Value T={L1}
SYMATTR InstName U33
SYMBOL LTspiceControlLibrary\\TransferFunctions\\Proportional 480 880 M0
WINDOW 3 32 0 Right 2
SYMATTR Value K={1/R1}
SYMATTR InstName U34
SYMBOL LTspiceControlLibrary\\Math\\Operands\\add 384 880 R180
SYMATTR InstName U35
SYMBOL voltage -208 80 R0
WINDOW 123 0 0 Left 2
WINDOW 39 0 0 Left 2
SYMATTR InstName V1
SYMATTR Value {Vin}
SYMBOL voltage -96 80 R0
WINDOW 123 24 124 Left 2
WINDOW 39 0 0 Left 2
SYMATTR Value2 AC 0.1
SYMATTR InstName V2
SYMATTR Value {m}
TEXT -232 -64 Left 2 !.ac dec 100 1 10k
TEXT 8 -64 Left 2 !.param L1=10m C1=100u R1=100\n.param Vin=10 m=0.5 Vc0=Vin/(1-m) Il0=Vc0/R1/(1-m)
TEXT -248 -112 Left 4 ;Config
TEXT -248 16 Left 4 ;Circuit
TEXT -248 288 Left 4 ;Equivalent Block Diagram
TEXT -272 -168 Left 5 ;Boost Converter
TEXT 624 40 Left 2 ;NOTE\nSwitching elements are approximated\nby imaginary variable dc transformers.\nThis reduces transient analysis time and\nallows ac analysis.\nDiscontinuous conduction mode and\nnonconduction mode are NOT considered.
