Version 4
SHEET 1 3572 848
WIRE 640 32 432 32
WIRE 800 32 688 32
WIRE 944 32 880 32
WIRE 1072 32 944 32
WIRE 432 64 432 32
WIRE 640 80 640 32
WIRE 688 80 688 32
WIRE 944 80 944 32
WIRE 1072 80 1072 32
WIRE 640 176 640 160
WIRE 688 176 688 160
WIRE 688 176 640 176
WIRE 432 208 432 144
WIRE 640 208 640 176
WIRE 640 208 432 208
WIRE 944 208 944 144
WIRE 944 208 640 208
WIRE 1072 208 1072 160
WIRE 1072 208 944 208
WIRE 432 224 432 208
WIRE 464 432 432 432
WIRE 528 432 464 432
WIRE 624 432 592 432
WIRE 736 432 688 432
WIRE 816 432 736 432
WIRE 848 432 816 432
WIRE 928 432 912 432
WIRE 1056 432 1040 432
WIRE 432 480 432 432
WIRE 736 512 736 432
WIRE 816 512 800 512
WIRE 880 512 880 464
WIRE 880 512 816 512
FLAG 432 224 0
FLAG 432 32 IN
FLAG 1072 32 OUT
FLAG 432 560 0
FLAG 560 464 OUT
FLAG 464 432 v*
FLAG 816 432 m*_p
FLAG 816 512 m*_i
FLAG 1056 432 m*
FLAG 592 144 0
FLAG 592 96 m*
SYMBOL voltage 432 48 R0
WINDOW 123 0 0 Left 2
WINDOW 39 24 124 Left 2
SYMATTR InstName V1
SYMATTR Value 10
SYMBOL cap 928 80 R0
SYMATTR InstName C1
SYMATTR Value 10u
SYMBOL res 1056 64 R0
SYMATTR InstName R1
SYMATTR Value 100
SYMBOL ind 784 48 R270
WINDOW 0 32 56 VTop 2
WINDOW 3 5 56 VBottom 2
SYMATTR InstName L1
SYMATTR Value 10m
SYMBOL voltage 432 464 R0
WINDOW 123 0 0 Left 2
WINDOW 39 0 0 Left 2
SYMATTR InstName V2
SYMATTR Value PULSE(0 5 0 5m)
SYMBOL sub 544 464 R0
SYMATTR InstName U1
SYMBOL Integral 752 544 R0
SYMATTR Value T=1m
SYMATTR InstName U2
SYMBOL Proportional 640 464 R0
SYMATTR InstName U4
SYMATTR Value K=10m
SYMBOL add 864 464 R0
SYMATTR InstName U5
SYMBOL LTspiceControlLibrary\\Math\\Functions\\limit 944 464 R0
SYMATTR Value y=0 z=1
SYMATTR InstName U3
SYMBOL LTspiceControlLibrary\\Sources\\DCTransformer 640 64 R0
SYMATTR InstName U6
TEXT 408 -200 Left 2 !.tran 0 100m 0 startup
TEXT 408 -168 Left 2 !.model SW SW(Ron=1 Roff=1Meg Vt=0.5)\n.model D D(Ron=.1 Roff=1Meg Vfwd=.4)
TEXT 352 328 Left 4 ;Controller
TEXT 424 376 Left 2 ;voltage controller
TEXT 360 -248 Left 4 ;Config
TEXT 320 -304 Left 5 ;Buck Converter
TEXT 360 -88 Left 4 ;Circuit
TEXT 880 -184 Left 2 ;NOTE\nSwitching elements are approximated\nby imaginary variable dc transformers.\nThis reduces transient analysis time and\nallows ac analysis.\nDiscontinuous conduction mode and\nnonconduction mode are NOT considered.
